make[1]: Entering directory '/home/disk/cindylou/ujongebl/mod_dms_12.9.3'
make[2]: Entering directory '/home/disk/cindylou/ujongebl/mod_dms_12.9.3/GeosCore'
make[3]: Entering directory '/home/disk/cindylou/ujongebl/mod_dms_12.9.3/GeosCore'
make[4]: Entering directory '/home/disk/cindylou/ujongebl/mod_dms_12.9.3/GeosCore'
make[5]: Entering directory '/home/disk/cindylou/ujongebl/mod_dms_12.9.3/NcdfUtil'
ifort -cpp -w -auto -noalign -convert big_endian -O2 -vec-report0 -fp-model source -qopenmp -mcmodel=medium -shared-intel -traceback -DMODEL_CLASSIC -DLINUX_IFORT -DUSE_REAL8 -module ../mod -I/usr/local/GEOS-Chem/lib/ -I/usr/local/GEOS-Chem/include/ -c -free charpak_mod.F90
ifort -cpp -w -auto -noalign -convert big_endian -O2 -vec-report0 -fp-model source -qopenmp -mcmodel=medium -shared-intel -traceback -DMODEL_CLASSIC -DLINUX_IFORT -DUSE_REAL8 -module ../mod -I/usr/local/GEOS-Chem/lib/ -I/usr/local/GEOS-Chem/include/ -c julday_mod.F
ifort -cpp -w -auto -noalign -convert big_endian -O2 -vec-report0 -fp-model source -qopenmp -mcmodel=medium -shared-intel -traceback -DMODEL_CLASSIC -DLINUX_IFORT -DUSE_REAL8 -module ../mod -I/usr/local/GEOS-Chem/lib/ -I/usr/local/GEOS-Chem/include/ -c -free m_do_err_out.F90
ifort -cpp -w -auto -noalign -convert big_endian -O2 -vec-report0 -fp-model source -qopenmp -mcmodel=medium -shared-intel -traceback -DMODEL_CLASSIC -DLINUX_IFORT -DUSE_REAL8 -module ../mod -I/usr/local/GEOS-Chem/lib/ -I/usr/local/GEOS-Chem/include/ -c -free m_netcdf_io_checks.F90
ifort -cpp -w -auto -noalign -convert big_endian -O2 -vec-report0 -fp-model source -qopenmp -mcmodel=medium -shared-intel -traceback -DMODEL_CLASSIC -DLINUX_IFORT -DUSE_REAL8 -module ../mod -I/usr/local/GEOS-Chem/lib/ -I/usr/local/GEOS-Chem/include/ -c -free m_netcdf_io_close.F90
ifort -cpp -w -auto -noalign -convert big_endian -O2 -vec-report0 -fp-model source -qopenmp -mcmodel=medium -shared-intel -traceback -DMODEL_CLASSIC -DLINUX_IFORT -DUSE_REAL8 -module ../mod -I/usr/local/GEOS-Chem/lib/ -I/usr/local/GEOS-Chem/include/ -c -free m_netcdf_io_create.F90
ifort -cpp -w -auto -noalign -convert big_endian -O2 -vec-report0 -fp-model source -qopenmp -mcmodel=medium -shared-intel -traceback -DMODEL_CLASSIC -DLINUX_IFORT -DUSE_REAL8 -module ../mod -I/usr/local/GEOS-Chem/lib/ -I/usr/local/GEOS-Chem/include/ -c -free m_netcdf_io_define.F90
ifort -cpp -w -auto -noalign -convert big_endian -O2 -vec-report0 -fp-model source -qopenmp -mcmodel=medium -shared-intel -traceback -DMODEL_CLASSIC -DLINUX_IFORT -DUSE_REAL8 -module ../mod -I/usr/local/GEOS-Chem/lib/ -I/usr/local/GEOS-Chem/include/ -c -free m_netcdf_io_get_dimlen.F90
ifort -cpp -w -auto -noalign -convert big_endian -O2 -vec-report0 -fp-model source -qopenmp -mcmodel=medium -shared-intel -traceback -DMODEL_CLASSIC -DLINUX_IFORT -DUSE_REAL8 -module ../mod -I/usr/local/GEOS-Chem/lib/ -I/usr/local/GEOS-Chem/include/ -c -free m_netcdf_io_handle_err.F90
ifort -cpp -w -auto -noalign -convert big_endian -O2 -vec-report0 -fp-model source -qopenmp -mcmodel=medium -shared-intel -traceback -DMODEL_CLASSIC -DLINUX_IFORT -DUSE_REAL8 -module ../mod -I/usr/local/GEOS-Chem/lib/ -I/usr/local/GEOS-Chem/include/ -c -free m_netcdf_io_open.F90
ifort -cpp -w -auto -noalign -convert big_endian -O2 -vec-report0 -fp-model source -qopenmp -mcmodel=medium -shared-intel -traceback -DMODEL_CLASSIC -DLINUX_IFORT -DUSE_REAL8 -module ../mod -I/usr/local/GEOS-Chem/lib/ -I/usr/local/GEOS-Chem/include/ -c -free m_netcdf_io_read.F90
ifort -cpp -w -auto -noalign -convert big_endian -O2 -vec-report0 -fp-model source -qopenmp -mcmodel=medium -shared-intel -traceback -DMODEL_CLASSIC -DLINUX_IFORT -DUSE_REAL8 -module ../mod -I/usr/local/GEOS-Chem/lib/ -I/usr/local/GEOS-Chem/include/ -c -free m_netcdf_io_readattr.F90
ifort -cpp -w -auto -noalign -convert big_endian -O2 -vec-report0 -fp-model source -qopenmp -mcmodel=medium -shared-intel -traceback -DMODEL_CLASSIC -DLINUX_IFORT -DUSE_REAL8 -module ../mod -I/usr/local/GEOS-Chem/lib/ -I/usr/local/GEOS-Chem/include/ -c -free m_netcdf_io_write.F90
ifort -cpp -w -auto -noalign -convert big_endian -O2 -vec-report0 -fp-model source -qopenmp -mcmodel=medium -shared-intel -traceback -DMODEL_CLASSIC -DLINUX_IFORT -DUSE_REAL8 -module ../mod -I/usr/local/GEOS-Chem/lib/ -I/usr/local/GEOS-Chem/include/ -c -free ncdf_mod.F90
ar crs libNcUtils.a m_do_err_out.o m_netcdf_io_checks.o m_netcdf_io_close.o m_netcdf_io_create.o m_netcdf_io_define.o m_netcdf_io_get_dimlen.o m_netcdf_io_handle_err.o m_netcdf_io_open.o m_netcdf_io_read.o m_netcdf_io_readattr.o m_netcdf_io_write.o ncdf_mod.o
mv libNcUtils.a ../lib
make[5]: Leaving directory '/home/disk/cindylou/ujongebl/mod_dms_12.9.3/NcdfUtil'
make[4]: Leaving directory '/home/disk/cindylou/ujongebl/mod_dms_12.9.3/GeosCore'
make[4]: Entering directory '/home/disk/cindylou/ujongebl/mod_dms_12.9.3/GeosCore'
make[5]: Entering directory '/home/disk/cindylou/ujongebl/mod_dms_12.9.3/KPP'
make[6]: Entering directory '/home/disk/cindylou/ujongebl/mod_dms_12.9.3/KPP/Tropchem'
ifort -cpp -w -auto -noalign -convert big_endian -O2 -vec-report0 -fp-model source -qopenmp -mcmodel=medium -shared-intel -traceback -DMODEL_CLASSIC -DLINUX_IFORT -DUSE_REAL8 -module ../../mod -I/usr/local/GEOS-Chem/lib/ -I/usr/local/GEOS-Chem/include/ -c -free gckpp_Precision.F90
ifort -cpp -w -auto -noalign -convert big_endian -O2 -vec-report0 -fp-model source -qopenmp -mcmodel=medium -shared-intel -traceback -DMODEL_CLASSIC -DLINUX_IFORT -DUSE_REAL8 -module ../../mod -I/usr/local/GEOS-Chem/lib/ -I/usr/local/GEOS-Chem/include/ -c -free gckpp_Monitor.F90
ifort -cpp -w -auto -noalign -convert big_endian -O2 -vec-report0 -fp-model source -qopenmp -mcmodel=medium -shared-intel -traceback -DMODEL_CLASSIC -DLINUX_IFORT -DUSE_REAL8 -module ../../mod -I/usr/local/GEOS-Chem/lib/ -I/usr/local/GEOS-Chem/include/ -c -free gckpp_Parameters.F90
make[6]: Leaving directory '/home/disk/cindylou/ujongebl/mod_dms_12.9.3/KPP/Tropchem'
make[5]: Leaving directory '/home/disk/cindylou/ujongebl/mod_dms_12.9.3/KPP'
make[4]: Leaving directory '/home/disk/cindylou/ujongebl/mod_dms_12.9.3/GeosCore'
make[4]: Entering directory '/home/disk/cindylou/ujongebl/mod_dms_12.9.3/GeosCore'
make[5]: Entering directory '/home/disk/cindylou/ujongebl/mod_dms_12.9.3/Headers'
ifort -cpp -w -auto -noalign -convert big_endian -O2 -vec-report0 -fp-model source -qopenmp -mcmodel=medium -shared-intel -traceback -DMODEL_CLASSIC -DLINUX_IFORT -DUSE_REAL8 -module ../mod -I/usr/local/GEOS-Chem/lib/ -I/usr/local/GEOS-Chem/include/ -c -free charpak_mod.F90
ifort -cpp -w -auto -noalign -convert big_endian -O2 -vec-report0 -fp-model source -qopenmp -mcmodel=medium -shared-intel -traceback -DMODEL_CLASSIC -DLINUX_IFORT -DUSE_REAL8 -module ../mod -I/usr/local/GEOS-Chem/lib/ -I/usr/local/GEOS-Chem/include/ -c -free precision_mod.F90
ifort -cpp -w -auto -noalign -convert big_endian -O2 -vec-report0 -fp-model source -qopenmp -mcmodel=medium -shared-intel -traceback -DMODEL_CLASSIC -DLINUX_IFORT -DUSE_REAL8 -module ../mod -I/usr/local/GEOS-Chem/lib/ -I/usr/local/GEOS-Chem/include/ -c -free inquireMod.F90
ifort -cpp -w -auto -noalign -convert big_endian -O2 -vec-report0 -fp-model source -qopenmp -mcmodel=medium -shared-intel -traceback -DMODEL_CLASSIC -DLINUX_IFORT -DUSE_REAL8 -module ../mod -I/usr/local/GEOS-Chem/lib/ -I/usr/local/GEOS-Chem/include/ -c -free dictionary_m.F90
ifort -cpp -w -auto -noalign -convert big_endian -O2 -vec-report0 -fp-model source -qopenmp -mcmodel=medium -shared-intel -traceback -DMODEL_CLASSIC -DLINUX_IFORT -DUSE_REAL8 -module ../mod -I/usr/local/GEOS-Chem/lib/ -I/usr/local/GEOS-Chem/include/ -c -free qfyaml_mod.F90
ifort -cpp -w -auto -noalign -convert big_endian -O2 -vec-report0 -fp-model source -qopenmp -mcmodel=medium -shared-intel -traceback -DMODEL_CLASSIC -DLINUX_IFORT -DUSE_REAL8 -module ../mod -I/usr/local/GEOS-Chem/lib/ -I/usr/local/GEOS-Chem/include/ -c -free roundoff_mod.F90
ifort -cpp -w -auto -noalign -convert big_endian -O2 -vec-report0 -fp-model source -qopenmp -mcmodel=medium -shared-intel -traceback -DMODEL_CLASSIC -DLINUX_IFORT -DUSE_REAL8 -module ../mod -I/usr/local/GEOS-Chem/lib/ -I/usr/local/GEOS-Chem/include/ -c -free registry_params_mod.F90
ifort -cpp -w -auto -noalign -convert big_endian -O2 -vec-report0 -fp-model source -qopenmp -mcmodel=medium -shared-intel -traceback -DMODEL_CLASSIC -DLINUX_IFORT -DUSE_REAL8 -module ../mod -I/usr/local/GEOS-Chem/lib/ -I/usr/local/GEOS-Chem/include/ -c -free physconstants.F90
ifort -cpp -w -auto -noalign -convert big_endian -O2 -vec-report0 -fp-model source -qopenmp -mcmodel=medium -shared-intel -traceback -DMODEL_CLASSIC -DLINUX_IFORT -DUSE_REAL8 -module ../mod -I/usr/local/GEOS-Chem/lib/ -I/usr/local/GEOS-Chem/include/ -c -free errcode_mod.F90
ifort -cpp -w -auto -noalign -convert big_endian -O2 -vec-report0 -fp-model source -qopenmp -mcmodel=medium -shared-intel -traceback -DMODEL_CLASSIC -DLINUX_IFORT -DUSE_REAL8 -module ../mod -I/usr/local/GEOS-Chem/lib/ -I/usr/local/GEOS-Chem/include/ -c -free input_opt_mod.F90
ifort -cpp -w -auto -noalign -convert big_endian -O2 -vec-report0 -fp-model source -qopenmp -mcmodel=medium -shared-intel -traceback -DMODEL_CLASSIC -DLINUX_IFORT -DUSE_REAL8 -module ../mod -I/usr/local/GEOS-Chem/lib/ -I/usr/local/GEOS-Chem/include/ -c -free state_grid_mod.F90
ifort -cpp -w -auto -noalign -convert big_endian -O2 -vec-report0 -fp-model source -qopenmp -mcmodel=medium -shared-intel -traceback -DMODEL_CLASSIC -DLINUX_IFORT -DUSE_REAL8 -module ../mod -I/usr/local/GEOS-Chem/lib/ -I/usr/local/GEOS-Chem/include/ -c -free registry_mod.F90
ifort -cpp -w -auto -noalign -convert big_endian -O2 -vec-report0 -fp-model source -qopenmp -mcmodel=medium -shared-intel -traceback -DMODEL_CLASSIC -DLINUX_IFORT -DUSE_REAL8 -module ../mod -I/usr/local/GEOS-Chem/lib/ -I/usr/local/GEOS-Chem/include/ -c -free species_mod.F90
ifort -cpp -w -auto -noalign -convert big_endian -O2 -vec-report0 -fp-model source -qopenmp -mcmodel=medium -shared-intel -traceback -DMODEL_CLASSIC -DLINUX_IFORT -DUSE_REAL8 -module ../mod -I/usr/local/GEOS-Chem/lib/ -I/usr/local/GEOS-Chem/include/ -c -free CMN_SIZE_mod.F90
ifort -cpp -w -auto -noalign -convert big_endian -O2 -vec-report0 -fp-model source -qopenmp -mcmodel=medium -shared-intel -traceback -DMODEL_CLASSIC -DLINUX_IFORT -DUSE_REAL8 -module ../mod -I/usr/local/GEOS-Chem/lib/ -I/usr/local/GEOS-Chem/include/ -c -free species_database_mod.F90
ifort -cpp -w -auto -noalign -convert big_endian -O2 -vec-report0 -fp-model source -qopenmp -mcmodel=medium -shared-intel -traceback -DMODEL_CLASSIC -DLINUX_IFORT -DUSE_REAL8 -module ../mod -I/usr/local/GEOS-Chem/lib/ -I/usr/local/GEOS-Chem/include/ -c -free CMN_FJX_MOD.F90
ifort -cpp -w -auto -noalign -convert big_endian -O2 -vec-report0 -fp-model source -qopenmp -mcmodel=medium -shared-intel -traceback -DMODEL_CLASSIC -DLINUX_IFORT -DUSE_REAL8 -module ../mod -I/usr/local/GEOS-Chem/lib/ -I/usr/local/GEOS-Chem/include/ -c -free CMN_O3_mod.F90
ifort -cpp -w -auto -noalign -convert big_endian -O2 -vec-report0 -fp-model source -qopenmp -mcmodel=medium -shared-intel -traceback -DMODEL_CLASSIC -DLINUX_IFORT -DUSE_REAL8 -module ../mod -I/usr/local/GEOS-Chem/lib/ -I/usr/local/GEOS-Chem/include/ -c -free CMN_DIAG_mod.F90
ifort -cpp -w -auto -noalign -convert big_endian -O2 -vec-report0 -fp-model source -qopenmp -mcmodel=medium -shared-intel -traceback -DMODEL_CLASSIC -DLINUX_IFORT -DUSE_REAL8 -module ../mod -I/usr/local/GEOS-Chem/lib/ -I/usr/local/GEOS-Chem/include/ -c -free diaglist_mod.F90
ifort -cpp -w -auto -noalign -convert big_endian -O2 -vec-report0 -fp-model source -qopenmp -mcmodel=medium -shared-intel -traceback -DMODEL_CLASSIC -DLINUX_IFORT -DUSE_REAL8 -module ../mod -I/usr/local/GEOS-Chem/lib/ -I/usr/local/GEOS-Chem/include/ -c -free state_chm_mod.F90
ifort -cpp -w -auto -noalign -convert big_endian -O2 -vec-report0 -fp-model source -qopenmp -mcmodel=medium -shared-intel -traceback -DMODEL_CLASSIC -DLINUX_IFORT -DUSE_REAL8 -module ../mod -I/usr/local/GEOS-Chem/lib/ -I/usr/local/GEOS-Chem/include/ -c -free state_met_mod.F90
ifort -cpp -w -auto -noalign -convert big_endian -O2 -vec-report0 -fp-model source -qopenmp -mcmodel=medium -shared-intel -traceback -DMODEL_CLASSIC -DLINUX_IFORT -DUSE_REAL8 -module ../mod -I/usr/local/GEOS-Chem/lib/ -I/usr/local/GEOS-Chem/include/ -c -free taggeddiaglist_mod.F90
ifort -cpp -w -auto -noalign -convert big_endian -O2 -vec-report0 -fp-model source -qopenmp -mcmodel=medium -shared-intel -traceback -DMODEL_CLASSIC -DLINUX_IFORT -DUSE_REAL8 -module ../mod -I/usr/local/GEOS-Chem/lib/ -I/usr/local/GEOS-Chem/include/ -c -free state_diag_mod.F90
ar crs libHeaders.a charpak_mod.o CMN_DIAG_mod.o CMN_FJX_MOD.o CMN_O3_mod.o CMN_SIZE_mod.o diaglist_mod.o dictionary_m.o errcode_mod.o input_opt_mod.o inquireMod.o physconstants.o precision_mod.o qfyaml_mod.o registry_mod.o registry_params_mod.o roundoff_mod.o species_database_mod.o species_mod.o state_chm_mod.o state_diag_mod.o state_grid_mod.o state_met_mod.o taggeddiaglist_mod.o
mv libHeaders.a ../lib
make[5]: Leaving directory '/home/disk/cindylou/ujongebl/mod_dms_12.9.3/Headers'
make[4]: Leaving directory '/home/disk/cindylou/ujongebl/mod_dms_12.9.3/GeosCore'
make[4]: Entering directory '/home/disk/cindylou/ujongebl/mod_dms_12.9.3/GeosCore'
make[5]: Entering directory '/home/disk/cindylou/ujongebl/mod_dms_12.9.3/GeosUtil'
ifort -cpp -w -auto -noalign -convert big_endian -O2 -vec-report0 -fp-model source -qopenmp -mcmodel=medium -shared-intel -traceback -DMODEL_CLASSIC -DLINUX_IFORT -DUSE_REAL8 -module ../mod -I/usr/local/GEOS-Chem/lib/ -I/usr/local/GEOS-Chem/include/ -c -free timers_mod.F90
ifort -cpp -w -auto -noalign -convert big_endian -O2 -vec-report0 -fp-model source -qopenmp -mcmodel=medium -shared-intel -traceback -DMODEL_CLASSIC -DLINUX_IFORT -DUSE_REAL8 -module ../mod -I/usr/local/GEOS-Chem/lib/ -I/usr/local/GEOS-Chem/include/ -c -free julday_mod.F90
ifort -cpp -w -auto -noalign -convert big_endian -O2 -vec-report0 -fp-model source -qopenmp -mcmodel=medium -shared-intel -traceback -DMODEL_CLASSIC -DLINUX_IFORT -DUSE_REAL8 -module ../mod -I/usr/local/GEOS-Chem/lib/ -I/usr/local/GEOS-Chem/include/ -c -free henry_mod.F90
ifort -cpp -w -auto -noalign -convert big_endian -O2 -vec-report0 -fp-model source -qopenmp -mcmodel=medium -shared-intel -traceback -DMODEL_CLASSIC -DLINUX_IFORT -DUSE_REAL8 -module ../mod -I/usr/local/GEOS-Chem/lib/ -I/usr/local/GEOS-Chem/include/ -c -free ifort_errmsg.F90
ifort -cpp -w -auto -noalign -convert big_endian -O2 -vec-report0 -fp-model source -qopenmp -mcmodel=medium -shared-intel -traceback -DMODEL_CLASSIC -DLINUX_IFORT -DUSE_REAL8 -module ../mod -I/usr/local/GEOS-Chem/lib/ -I/usr/local/GEOS-Chem/include/ -c -free regrid_a2a_mod.F90
ifort -cpp -w -auto -noalign -convert big_endian -O2 -vec-report0 -fp-model source -qopenmp -mcmodel=medium -shared-intel -traceback -DMODEL_CLASSIC -DLINUX_IFORT -DUSE_REAL8 -module ../mod -I/usr/local/GEOS-Chem/lib/ -I/usr/local/GEOS-Chem/include/ -c -free error_mod.F90
ifort -cpp -w -auto -noalign -convert big_endian -O2 -vec-report0 -fp-model source -qopenmp -mcmodel=medium -shared-intel -traceback -DMODEL_CLASSIC -DLINUX_IFORT -DUSE_REAL8 -module ../mod -I/usr/local/GEOS-Chem/lib/ -I/usr/local/GEOS-Chem/include/ -c -free file_mod.F90
ifort -cpp -w -auto -noalign -convert big_endian -O2 -vec-report0 -fp-model source -qopenmp -mcmodel=medium -shared-intel -traceback -DMODEL_CLASSIC -DLINUX_IFORT -DUSE_REAL8 -module ../mod -I/usr/local/GEOS-Chem/lib/ -I/usr/local/GEOS-Chem/include/ -c -free gc_grid_mod.F90
ifort -cpp -w -auto -noalign -convert big_endian -O2 -vec-report0 -fp-model source -qopenmp -mcmodel=medium -shared-intel -traceback -DMODEL_CLASSIC -DLINUX_IFORT -DUSE_REAL8 -module ../mod -I/usr/local/GEOS-Chem/lib/ -I/usr/local/GEOS-Chem/include/ -c -free pressure_mod.F90
ifort -cpp -w -auto -noalign -convert big_endian -O2 -vec-report0 -fp-model source -qopenmp -mcmodel=medium -shared-intel -traceback -DMODEL_CLASSIC -DLINUX_IFORT -DUSE_REAL8 -module ../mod -I/usr/local/GEOS-Chem/lib/ -I/usr/local/GEOS-Chem/include/ -c -free transfer_mod.F90
ifort -cpp -w -auto -noalign -convert big_endian -O2 -vec-report0 -fp-model source -qopenmp -mcmodel=medium -shared-intel -traceback -DMODEL_CLASSIC -DLINUX_IFORT -DUSE_REAL8 -module ../mod -I/usr/local/GEOS-Chem/lib/ -I/usr/local/GEOS-Chem/include/ -c -free unitconv_mod.F90
ifort -cpp -w -auto -noalign -convert big_endian -O2 -vec-report0 -fp-model source -qopenmp -mcmodel=medium -shared-intel -traceback -DMODEL_CLASSIC -DLINUX_IFORT -DUSE_REAL8 -module ../mod -I/usr/local/GEOS-Chem/lib/ -I/usr/local/GEOS-Chem/include/ -c -free bpch2_mod.F90
ifort -cpp -w -auto -noalign -convert big_endian -O2 -vec-report0 -fp-model source -qopenmp -mcmodel=medium -shared-intel -traceback -DMODEL_CLASSIC -DLINUX_IFORT -DUSE_REAL8 -module ../mod -I/usr/local/GEOS-Chem/lib/ -I/usr/local/GEOS-Chem/include/ -c -free grid_registry_mod.F90
ifort -cpp -w -auto -noalign -convert big_endian -O2 -vec-report0 -fp-model source -qopenmp -mcmodel=medium -shared-intel -traceback -DMODEL_CLASSIC -DLINUX_IFORT -DUSE_REAL8 -module ../mod -I/usr/local/GEOS-Chem/lib/ -I/usr/local/GEOS-Chem/include/ -c -free time_mod.F90
ar crs libGeosUtil.a bpch2_mod.o error_mod.o file_mod.o gc_grid_mod.o grid_registry_mod.o henry_mod.o ifort_errmsg.o julday_mod.o pressure_mod.o regrid_a2a_mod.o time_mod.o timers_mod.o transfer_mod.o unitconv_mod.o ifort_errmsg.o
mv libGeosUtil.a ../lib
make[5]: Leaving directory '/home/disk/cindylou/ujongebl/mod_dms_12.9.3/GeosUtil'
make[4]: Leaving directory '/home/disk/cindylou/ujongebl/mod_dms_12.9.3/GeosCore'
make[4]: Entering directory '/home/disk/cindylou/ujongebl/mod_dms_12.9.3/GeosCore'
make[5]: Entering directory '/home/disk/cindylou/ujongebl/mod_dms_12.9.3/KPP'
make[6]: Entering directory '/home/disk/cindylou/ujongebl/mod_dms_12.9.3/KPP/Tropchem'
ifort -cpp -w -auto -noalign -convert big_endian -O2 -vec-report0 -fp-model source -qopenmp -mcmodel=medium -shared-intel -traceback -DMODEL_CLASSIC -DLINUX_IFORT -DUSE_REAL8 -module ../../mod -I/usr/local/GEOS-Chem/lib/ -I/usr/local/GEOS-Chem/include/ -c -free gckpp_Function.F90
ifort -cpp -w -auto -noalign -convert big_endian -O2 -vec-report0 -fp-model source -qopenmp -mcmodel=medium -shared-intel -traceback -DMODEL_CLASSIC -DLINUX_IFORT -DUSE_REAL8 -module ../../mod -I/usr/local/GEOS-Chem/lib/ -I/usr/local/GEOS-Chem/include/ -c -free gckpp_Global.F90
ifort -cpp -w -auto -noalign -convert big_endian -O2 -vec-report0 -fp-model source -qopenmp -mcmodel=medium -shared-intel -traceback -DMODEL_CLASSIC -DLINUX_IFORT -DUSE_REAL8 -module ../../mod -I/usr/local/GEOS-Chem/lib/ -I/usr/local/GEOS-Chem/include/ -c -free gckpp_JacobianSP.F90
ifort -cpp -w -auto -noalign -convert big_endian -O2 -vec-report0 -fp-model source -qopenmp -mcmodel=medium -shared-intel -traceback -DMODEL_CLASSIC -DLINUX_IFORT -DUSE_REAL8 -module ../../mod -I/usr/local/GEOS-Chem/lib/ -I/usr/local/GEOS-Chem/include/ -c -free gckpp_HetRates.F90
ifort -cpp -w -auto -noalign -convert big_endian -O2 -vec-report0 -fp-model source -qopenmp -mcmodel=medium -shared-intel -traceback -DMODEL_CLASSIC -DLINUX_IFORT -DUSE_REAL8 -module ../../mod -I/usr/local/GEOS-Chem/lib/ -I/usr/local/GEOS-Chem/include/ -c -free gckpp_Util.F90
ifort -cpp -w -auto -noalign -convert big_endian -O2 -vec-report0 -fp-model source -qopenmp -mcmodel=medium -shared-intel -traceback -DMODEL_CLASSIC -DLINUX_IFORT -DUSE_REAL8 -module ../../mod -I/usr/local/GEOS-Chem/lib/ -I/usr/local/GEOS-Chem/include/ -c -free gckpp_Jacobian.F90
ifort -cpp -w -auto -noalign -convert big_endian -O2 -vec-report0 -fp-model source -qopenmp -mcmodel=medium -shared-intel -traceback -DMODEL_CLASSIC -DLINUX_IFORT -DUSE_REAL8 -module ../../mod -I/usr/local/GEOS-Chem/lib/ -I/usr/local/GEOS-Chem/include/ -c -free gckpp_LinearAlgebra.F90
ifort -cpp -w -auto -noalign -convert big_endian -O2 -vec-report0 -fp-model source -qopenmp -mcmodel=medium -shared-intel -traceback -DMODEL_CLASSIC -DLINUX_IFORT -DUSE_REAL8 -module ../../mod -I/usr/local/GEOS-Chem/lib/ -I/usr/local/GEOS-Chem/include/ -c -free gckpp_Initialize.F90
ifort -cpp -w -auto -noalign -convert big_endian -O2 -vec-report0 -fp-model source -qopenmp -mcmodel=medium -shared-intel -traceback -DMODEL_CLASSIC -DLINUX_IFORT -DUSE_REAL8 -module ../../mod -I/usr/local/GEOS-Chem/lib/ -I/usr/local/GEOS-Chem/include/ -c -free gckpp_Rates.F90
ifort -cpp -w -auto -noalign -convert big_endian -O2 -vec-report0 -fp-model source -qopenmp -mcmodel=medium -shared-intel -traceback -DMODEL_CLASSIC -DLINUX_IFORT -DUSE_REAL8 -module ../../mod -I/usr/local/GEOS-Chem/lib/ -I/usr/local/GEOS-Chem/include/ -c -free gckpp_Integrator.F90
ifort -cpp -w -auto -noalign -convert big_endian -O2 -vec-report0 -fp-model source -qopenmp -mcmodel=medium -shared-intel -traceback -DMODEL_CLASSIC -DLINUX_IFORT -DUSE_REAL8 -module ../../mod -I/usr/local/GEOS-Chem/lib/ -I/usr/local/GEOS-Chem/include/ -c -free gckpp_Model.F90
ar crs libKpp.a gckpp_Function.o gckpp_Global.o gckpp_HetRates.o gckpp_Initialize.o gckpp_Integrator.o gckpp_Jacobian.o gckpp_JacobianSP.o gckpp_LinearAlgebra.o gckpp_Model.o gckpp_Monitor.o gckpp_Parameters.o gckpp_Precision.o gckpp_Rates.o gckpp_Util.o
mv libKpp.a ../../lib
make[6]: Leaving directory '/home/disk/cindylou/ujongebl/mod_dms_12.9.3/KPP/Tropchem'
make[5]: Leaving directory '/home/disk/cindylou/ujongebl/mod_dms_12.9.3/KPP'
make[4]: Leaving directory '/home/disk/cindylou/ujongebl/mod_dms_12.9.3/GeosCore'
make[4]: Entering directory '/home/disk/cindylou/ujongebl/mod_dms_12.9.3/GeosCore'
make[5]: Entering directory '/home/disk/cindylou/ujongebl/mod_dms_12.9.3/History'
ifort -cpp -w -auto -noalign -convert big_endian -O2 -vec-report0 -fp-model source -qopenmp -mcmodel=medium -shared-intel -traceback -DMODEL_CLASSIC -DLINUX_IFORT -DUSE_REAL8 -module ../mod -I/usr/local/GEOS-Chem/lib/ -I/usr/local/GEOS-Chem/include/ -c -free history_util_mod.F90
ifort -cpp -w -auto -noalign -convert big_endian -O2 -vec-report0 -fp-model source -qopenmp -mcmodel=medium -shared-intel -traceback -DMODEL_CLASSIC -DLINUX_IFORT -DUSE_REAL8 -module ../mod -I/usr/local/GEOS-Chem/lib/ -I/usr/local/GEOS-Chem/include/ -c -free histitem_mod.F90
ifort -cpp -w -auto -noalign -convert big_endian -O2 -vec-report0 -fp-model source -qopenmp -mcmodel=medium -shared-intel -traceback -DMODEL_CLASSIC -DLINUX_IFORT -DUSE_REAL8 -module ../mod -I/usr/local/GEOS-Chem/lib/ -I/usr/local/GEOS-Chem/include/ -c -free metahistitem_mod.F90
ifort -cpp -w -auto -noalign -convert big_endian -O2 -vec-report0 -fp-model source -qopenmp -mcmodel=medium -shared-intel -traceback -DMODEL_CLASSIC -DLINUX_IFORT -DUSE_REAL8 -module ../mod -I/usr/local/GEOS-Chem/lib/ -I/usr/local/GEOS-Chem/include/ -c -free histcontainer_mod.F90
ifort -cpp -w -auto -noalign -convert big_endian -O2 -vec-report0 -fp-model source -qopenmp -mcmodel=medium -shared-intel -traceback -DMODEL_CLASSIC -DLINUX_IFORT -DUSE_REAL8 -module ../mod -I/usr/local/GEOS-Chem/lib/ -I/usr/local/GEOS-Chem/include/ -c -free metahistcontainer_mod.F90
ifort -cpp -w -auto -noalign -convert big_endian -O2 -vec-report0 -fp-model source -qopenmp -mcmodel=medium -shared-intel -traceback -DMODEL_CLASSIC -DLINUX_IFORT -DUSE_REAL8 -module ../mod -I/usr/local/GEOS-Chem/lib/ -I/usr/local/GEOS-Chem/include/ -c -free history_netcdf_mod.F90
ifort -cpp -w -auto -noalign -convert big_endian -O2 -vec-report0 -fp-model source -qopenmp -mcmodel=medium -shared-intel -traceback -DMODEL_CLASSIC -DLINUX_IFORT -DUSE_REAL8 -module ../mod -I/usr/local/GEOS-Chem/lib/ -I/usr/local/GEOS-Chem/include/ -c -free history_mod.F90
ar crs libHistory.a histcontainer_mod.o histitem_mod.o history_mod.o history_netcdf_mod.o history_util_mod.o metahistcontainer_mod.o metahistitem_mod.o
mv libHistory.a ../lib
make[5]: Leaving directory '/home/disk/cindylou/ujongebl/mod_dms_12.9.3/History'
make[4]: Leaving directory '/home/disk/cindylou/ujongebl/mod_dms_12.9.3/GeosCore'
make[4]: Entering directory '/home/disk/cindylou/ujongebl/mod_dms_12.9.3/GeosCore'
make[5]: Entering directory '/home/disk/cindylou/ujongebl/mod_dms_12.9.3/ObsPack'
ifort -cpp -w -auto -noalign -convert big_endian -O2 -vec-report0 -fp-model source -qopenmp -mcmodel=medium -shared-intel -traceback -DMODEL_CLASSIC -DLINUX_IFORT -DUSE_REAL8 -module ../mod -I/usr/local/GEOS-Chem/lib/ -I/usr/local/GEOS-Chem/include/ -c -free obspack_mod.F90
ar crs libObsPack.a obspack_mod.o
mv libObsPack.a ../lib
make[5]: Leaving directory '/home/disk/cindylou/ujongebl/mod_dms_12.9.3/ObsPack'
make[4]: Leaving directory '/home/disk/cindylou/ujongebl/mod_dms_12.9.3/GeosCore'
make[4]: Entering directory '/home/disk/cindylou/ujongebl/mod_dms_12.9.3/GeosCore'
make[5]: Entering directory '/home/disk/cindylou/ujongebl/mod_dms_12.9.3/HEMCO'
make[6]: Entering directory '/home/disk/cindylou/ujongebl/mod_dms_12.9.3/HEMCO'
make[7]: Entering directory '/home/disk/cindylou/ujongebl/mod_dms_12.9.3/HEMCO/src/Core'
ifort -cpp -w -auto -noalign -convert big_endian -O2 -vec-report0 -fp-model source -qopenmp -mcmodel=medium -shared-intel -traceback -DMODEL_CLASSIC -DLINUX_IFORT -DUSE_REAL8 -module ../../../mod -I/usr/local/GEOS-Chem/lib/ -I/usr/local/GEOS-Chem/include/ -c -free hco_error_mod.F90
ifort -cpp -w -auto -noalign -convert big_endian -O2 -vec-report0 -fp-model source -qopenmp -mcmodel=medium -shared-intel -traceback -DMODEL_CLASSIC -DLINUX_IFORT -DUSE_REAL8 -module ../../../mod -I/usr/local/GEOS-Chem/lib/ -I/usr/local/GEOS-Chem/include/ -c -free messy_ncregrid_mpi.F90
ifort -cpp -w -auto -noalign -convert big_endian -O2 -vec-report0 -fp-model source -qopenmp -mcmodel=medium -shared-intel -traceback -DMODEL_CLASSIC -DLINUX_IFORT -DUSE_REAL8 -module ../../../mod -I/usr/local/GEOS-Chem/lib/ -I/usr/local/GEOS-Chem/include/ -c -free hco_arr_mod.F90
ifort -cpp -w -auto -noalign -convert big_endian -O2 -vec-report0 -fp-model source -qopenmp -mcmodel=medium -shared-intel -traceback -DMODEL_CLASSIC -DLINUX_IFORT -DUSE_REAL8 -module ../../../mod -I/usr/local/GEOS-Chem/lib/ -I/usr/local/GEOS-Chem/include/ -c -free messy_ncregrid_base.F90
ifort -cpp -w -auto -noalign -convert big_endian -O2 -vec-report0 -fp-model source -qopenmp -mcmodel=medium -shared-intel -traceback -DMODEL_CLASSIC -DLINUX_IFORT -DUSE_REAL8 -module ../../../mod -I/usr/local/GEOS-Chem/lib/ -I/usr/local/GEOS-Chem/include/ -c -free interpreter.F90
ifort -cpp -w -auto -noalign -convert big_endian -O2 -vec-report0 -fp-model source -qopenmp -mcmodel=medium -shared-intel -traceback -DMODEL_CLASSIC -DLINUX_IFORT -DUSE_REAL8 -module ../../../mod -I/usr/local/GEOS-Chem/lib/ -I/usr/local/GEOS-Chem/include/ -c -free hco_types_mod.F90
ifort -cpp -w -auto -noalign -convert big_endian -O2 -vec-report0 -fp-model source -qopenmp -mcmodel=medium -shared-intel -traceback -DMODEL_CLASSIC -DLINUX_IFORT -DUSE_REAL8 -module ../../../mod -I/usr/local/GEOS-Chem/lib/ -I/usr/local/GEOS-Chem/include/ -c -free hco_extlist_mod.F90
ifort -cpp -w -auto -noalign -convert big_endian -O2 -vec-report0 -fp-model source -qopenmp -mcmodel=medium -shared-intel -traceback -DMODEL_CLASSIC -DLINUX_IFORT -DUSE_REAL8 -module ../../../mod -I/usr/local/GEOS-Chem/lib/ -I/usr/local/GEOS-Chem/include/ -c -free hco_vertgrid_mod.F90
ifort -cpp -w -auto -noalign -convert big_endian -O2 -vec-report0 -fp-model source -qopenmp -mcmodel=medium -shared-intel -traceback -DMODEL_CLASSIC -DLINUX_IFORT -DUSE_REAL8 -module ../../../mod -I/usr/local/GEOS-Chem/lib/ -I/usr/local/GEOS-Chem/include/ -c -free hco_chartools_mod.F90
ifort -cpp -w -auto -noalign -convert big_endian -O2 -vec-report0 -fp-model source -qopenmp -mcmodel=medium -shared-intel -traceback -DMODEL_CLASSIC -DLINUX_IFORT -DUSE_REAL8 -module ../../../mod -I/usr/local/GEOS-Chem/lib/ -I/usr/local/GEOS-Chem/include/ -c -free hco_unit_mod.F90
ifort -cpp -w -auto -noalign -convert big_endian -O2 -vec-report0 -fp-model source -qopenmp -mcmodel=medium -shared-intel -traceback -DMODEL_CLASSIC -DLINUX_IFORT -DUSE_REAL8 -module ../../../mod -I/usr/local/GEOS-Chem/lib/ -I/usr/local/GEOS-Chem/include/ -c -free hco_filedata_mod.F90
ifort -cpp -w -auto -noalign -convert big_endian -O2 -vec-report0 -fp-model source -qopenmp -mcmodel=medium -shared-intel -traceback -DMODEL_CLASSIC -DLINUX_IFORT -DUSE_REAL8 -module ../../../mod -I/usr/local/GEOS-Chem/lib/ -I/usr/local/GEOS-Chem/include/ -c -free hco_state_mod.F90
ifort -cpp -w -auto -noalign -convert big_endian -O2 -vec-report0 -fp-model source -qopenmp -mcmodel=medium -shared-intel -traceback -DMODEL_CLASSIC -DLINUX_IFORT -DUSE_REAL8 -module ../../../mod -I/usr/local/GEOS-Chem/lib/ -I/usr/local/GEOS-Chem/include/ -c -free hco_datacont_mod.F90
ifort -cpp -w -auto -noalign -convert big_endian -O2 -vec-report0 -fp-model source -qopenmp -mcmodel=medium -shared-intel -traceback -DMODEL_CLASSIC -DLINUX_IFORT -DUSE_REAL8 -module ../../../mod -I/usr/local/GEOS-Chem/lib/ -I/usr/local/GEOS-Chem/include/ -c -free hco_logfile_mod.F90
ifort -cpp -w -auto -noalign -convert big_endian -O2 -vec-report0 -fp-model source -qopenmp -mcmodel=medium -shared-intel -traceback -DMODEL_CLASSIC -DLINUX_IFORT -DUSE_REAL8 -module ../../../mod -I/usr/local/GEOS-Chem/lib/ -I/usr/local/GEOS-Chem/include/ -c -free hco_scale_mod.F90
ifort -cpp -w -auto -noalign -convert big_endian -O2 -vec-report0 -fp-model source -qopenmp -mcmodel=medium -shared-intel -traceback -DMODEL_CLASSIC -DLINUX_IFORT -DUSE_REAL8 -module ../../../mod -I/usr/local/GEOS-Chem/lib/ -I/usr/local/GEOS-Chem/include/ -c -free hco_timeshift_mod.F90
ifort -cpp -w -auto -noalign -convert big_endian -O2 -vec-report0 -fp-model source -qopenmp -mcmodel=medium -shared-intel -traceback -DMODEL_CLASSIC -DLINUX_IFORT -DUSE_REAL8 -module ../../../mod -I/usr/local/GEOS-Chem/lib/ -I/usr/local/GEOS-Chem/include/ -c -free hcoio_read_esmf_mod.F90
ifort -cpp -w -auto -noalign -convert big_endian -O2 -vec-report0 -fp-model source -qopenmp -mcmodel=medium -shared-intel -traceback -DMODEL_CLASSIC -DLINUX_IFORT -DUSE_REAL8 -module ../../../mod -I/usr/local/GEOS-Chem/lib/ -I/usr/local/GEOS-Chem/include/ -c -free hco_interp_mod.F90
ifort -cpp -w -auto -noalign -convert big_endian -O2 -vec-report0 -fp-model source -qopenmp -mcmodel=medium -shared-intel -traceback -DMODEL_CLASSIC -DLINUX_IFORT -DUSE_REAL8 -module ../../../mod -I/usr/local/GEOS-Chem/lib/ -I/usr/local/GEOS-Chem/include/ -c -free hco_emislist_mod.F90
ifort -cpp -w -auto -noalign -convert big_endian -O2 -vec-report0 -fp-model source -qopenmp -mcmodel=medium -shared-intel -traceback -DMODEL_CLASSIC -DLINUX_IFORT -DUSE_REAL8 -module ../../../mod -I/usr/local/GEOS-Chem/lib/ -I/usr/local/GEOS-Chem/include/ -c -free hco_clock_mod.F90
ifort -cpp -w -auto -noalign -convert big_endian -O2 -vec-report0 -fp-model source -qopenmp -mcmodel=medium -shared-intel -traceback -DMODEL_CLASSIC -DLINUX_IFORT -DUSE_REAL8 -module ../../../mod -I/usr/local/GEOS-Chem/lib/ -I/usr/local/GEOS-Chem/include/ -c -free hco_diagn_mod.F90
ifort -cpp -w -auto -noalign -convert big_endian -O2 -vec-report0 -fp-model source -qopenmp -mcmodel=medium -shared-intel -traceback -DMODEL_CLASSIC -DLINUX_IFORT -DUSE_REAL8 -module ../../../mod -I/usr/local/GEOS-Chem/lib/ -I/usr/local/GEOS-Chem/include/ -c -free hco_tidx_mod.F90
ifort -cpp -w -auto -noalign -convert big_endian -O2 -vec-report0 -fp-model source -qopenmp -mcmodel=medium -shared-intel -traceback -DMODEL_CLASSIC -DLINUX_IFORT -DUSE_REAL8 -module ../../../mod -I/usr/local/GEOS-Chem/lib/ -I/usr/local/GEOS-Chem/include/ -c -free hco_calc_mod.F90
ifort -cpp -w -auto -noalign -convert big_endian -O2 -vec-report0 -fp-model source -qopenmp -mcmodel=medium -shared-intel -traceback -DMODEL_CLASSIC -DLINUX_IFORT -DUSE_REAL8 -module ../../../mod -I/usr/local/GEOS-Chem/lib/ -I/usr/local/GEOS-Chem/include/ -c -free hcoio_write_esmf_mod.F90
ifort -cpp -w -auto -noalign -convert big_endian -O2 -vec-report0 -fp-model source -qopenmp -mcmodel=medium -shared-intel -traceback -DMODEL_CLASSIC -DLINUX_IFORT -DUSE_REAL8 -module ../../../mod -I/usr/local/GEOS-Chem/lib/ -I/usr/local/GEOS-Chem/include/ -c -free hcoio_write_std_mod.F90
ifort -cpp -w -auto -noalign -convert big_endian -O2 -vec-report0 -fp-model source -qopenmp -mcmodel=medium -shared-intel -traceback -DMODEL_CLASSIC -DLINUX_IFORT -DUSE_REAL8 -module ../../../mod -I/usr/local/GEOS-Chem/lib/ -I/usr/local/GEOS-Chem/include/ -c -free hco_fluxarr_mod.F90
ifort -cpp -w -auto -noalign -convert big_endian -O2 -vec-report0 -fp-model source -qopenmp -mcmodel=medium -shared-intel -traceback -DMODEL_CLASSIC -DLINUX_IFORT -DUSE_REAL8 -module ../../../mod -I/usr/local/GEOS-Chem/lib/ -I/usr/local/GEOS-Chem/include/ -c -free hco_restart_mod.F90
ifort -cpp -w -auto -noalign -convert big_endian -O2 -vec-report0 -fp-model source -qopenmp -mcmodel=medium -shared-intel -traceback -DMODEL_CLASSIC -DLINUX_IFORT -DUSE_REAL8 -module ../../../mod -I/usr/local/GEOS-Chem/lib/ -I/usr/local/GEOS-Chem/include/ -c -free hcoio_messy_mod.F90
ifort -cpp -w -auto -noalign -convert big_endian -O2 -vec-report0 -fp-model source -qopenmp -mcmodel=medium -shared-intel -traceback -DMODEL_CLASSIC -DLINUX_IFORT -DUSE_REAL8 -module ../../../mod -I/usr/local/GEOS-Chem/lib/ -I/usr/local/GEOS-Chem/include/ -c -free hcoio_diagn_mod.F90
ifort -cpp -w -auto -noalign -convert big_endian -O2 -vec-report0 -fp-model source -qopenmp -mcmodel=medium -shared-intel -traceback -DMODEL_CLASSIC -DLINUX_IFORT -DUSE_REAL8 -module ../../../mod -I/usr/local/GEOS-Chem/lib/ -I/usr/local/GEOS-Chem/include/ -c -free hco_geotools_mod.F90
ifort -cpp -w -auto -noalign -convert big_endian -O2 -vec-report0 -fp-model source -qopenmp -mcmodel=medium -shared-intel -traceback -DMODEL_CLASSIC -DLINUX_IFORT -DUSE_REAL8 -module ../../../mod -I/usr/local/GEOS-Chem/lib/ -I/usr/local/GEOS-Chem/include/ -c -free hcoio_read_std_mod.F90
ifort -cpp -w -auto -noalign -convert big_endian -O2 -vec-report0 -fp-model source -qopenmp -mcmodel=medium -shared-intel -traceback -DMODEL_CLASSIC -DLINUX_IFORT -DUSE_REAL8 -module ../../../mod -I/usr/local/GEOS-Chem/lib/ -I/usr/local/GEOS-Chem/include/ -c -free hcoio_dataread_mod.F90
ifort -cpp -w -auto -noalign -convert big_endian -O2 -vec-report0 -fp-model source -qopenmp -mcmodel=medium -shared-intel -traceback -DMODEL_CLASSIC -DLINUX_IFORT -DUSE_REAL8 -module ../../../mod -I/usr/local/GEOS-Chem/lib/ -I/usr/local/GEOS-Chem/include/ -c -free hco_readlist_mod.F90
ifort -cpp -w -auto -noalign -convert big_endian -O2 -vec-report0 -fp-model source -qopenmp -mcmodel=medium -shared-intel -traceback -DMODEL_CLASSIC -DLINUX_IFORT -DUSE_REAL8 -module ../../../mod -I/usr/local/GEOS-Chem/lib/ -I/usr/local/GEOS-Chem/include/ -c -free hco_config_mod.F90
ifort -cpp -w -auto -noalign -convert big_endian -O2 -vec-report0 -fp-model source -qopenmp -mcmodel=medium -shared-intel -traceback -DMODEL_CLASSIC -DLINUX_IFORT -DUSE_REAL8 -module ../../../mod -I/usr/local/GEOS-Chem/lib/ -I/usr/local/GEOS-Chem/include/ -c -free hco_driver_mod.F90
ar crs libHCO.a hco_arr_mod.o hco_calc_mod.o hco_chartools_mod.o hco_clock_mod.o hco_config_mod.o hco_datacont_mod.o hco_diagn_mod.o hco_driver_mod.o hco_emislist_mod.o hco_error_mod.o hco_extlist_mod.o hco_filedata_mod.o hco_fluxarr_mod.o hco_geotools_mod.o hco_interp_mod.o hcoio_dataread_mod.o hcoio_diagn_mod.o hcoio_messy_mod.o hcoio_read_esmf_mod.o hcoio_read_std_mod.o hcoio_write_esmf_mod.o hcoio_write_std_mod.o hco_logfile_mod.o hco_readlist_mod.o hco_restart_mod.o hco_scale_mod.o hco_state_mod.o hco_tidx_mod.o hco_timeshift_mod.o hco_types_mod.o hco_unit_mod.o hco_vertgrid_mod.o interpreter.o messy_ncregrid_base.o messy_ncregrid_mpi.o
mv libHCO.a ../../../lib
make[7]: Leaving directory '/home/disk/cindylou/ujongebl/mod_dms_12.9.3/HEMCO/src/Core'
make[6]: Leaving directory '/home/disk/cindylou/ujongebl/mod_dms_12.9.3/HEMCO'
make[6]: Entering directory '/home/disk/cindylou/ujongebl/mod_dms_12.9.3/HEMCO'
make[7]: Entering directory '/home/disk/cindylou/ujongebl/mod_dms_12.9.3/HEMCO/src/Extensions'
ifort -cpp -w -auto -noalign -convert big_endian -O2 -vec-report0 -fp-model source -qopenmp -mcmodel=medium -shared-intel -traceback -DMODEL_CLASSIC -DLINUX_IFORT -DUSE_REAL8 -module ../../../mod -I/usr/local/GEOS-Chem/lib/ -I/usr/local/GEOS-Chem/include/ -c -free hcox_state_mod.F90
ifort -cpp -w -auto -noalign -convert big_endian -O2 -vec-report0 -fp-model source -qopenmp -mcmodel=medium -shared-intel -traceback -DMODEL_CLASSIC -DLINUX_IFORT -DUSE_REAL8 -module ../../../mod -I/usr/local/GEOS-Chem/lib/ -I/usr/local/GEOS-Chem/include/ -c -free drydep_toolbox_mod.F90
ifort -cpp -w -auto -noalign -convert big_endian -O2 -vec-report0 -fp-model source -qopenmp -mcmodel=medium -shared-intel -traceback -DMODEL_CLASSIC -DLINUX_IFORT -DUSE_REAL8 -module ../../../mod -I/usr/local/GEOS-Chem/lib/ -I/usr/local/GEOS-Chem/include/ -c -free hcox_tools_mod.F90
ifort -cpp -w -auto -noalign -convert big_endian -O2 -vec-report0 -fp-model source -qopenmp -mcmodel=medium -shared-intel -traceback -DMODEL_CLASSIC -DLINUX_IFORT -DUSE_REAL8 -module ../../../mod -I/usr/local/GEOS-Chem/lib/ -I/usr/local/GEOS-Chem/include/ -c -free ocean_toolbox_mod.F90
ifort -cpp -w -auto -noalign -convert big_endian -O2 -vec-report0 -fp-model source -qopenmp -mcmodel=medium -shared-intel -traceback -DMODEL_CLASSIC -DLINUX_IFORT -DUSE_REAL8 -module ../../../mod -I/usr/local/GEOS-Chem/lib/ -I/usr/local/GEOS-Chem/include/ -c hcox_dustdead_mod.F
ifort -cpp -w -auto -noalign -convert big_endian -O2 -vec-report0 -fp-model source -qopenmp -mcmodel=medium -shared-intel -traceback -DMODEL_CLASSIC -DLINUX_IFORT -DUSE_REAL8 -module ../../../mod -I/usr/local/GEOS-Chem/lib/ -I/usr/local/GEOS-Chem/include/ -c hcox_tomas_dustdead_mod.F
ifort -cpp -w -auto -noalign -convert big_endian -O2 -vec-report0 -fp-model source -qopenmp -mcmodel=medium -shared-intel -traceback -DMODEL_CLASSIC -DLINUX_IFORT -DUSE_REAL8 -module ../../../mod -I/usr/local/GEOS-Chem/lib/ -I/usr/local/GEOS-Chem/include/ -c -free hcox_ch4wetland_mod.F90
ifort -cpp -w -auto -noalign -convert big_endian -O2 -vec-report0 -fp-model source -qopenmp -mcmodel=medium -shared-intel -traceback -DMODEL_CLASSIC -DLINUX_IFORT -DUSE_REAL8 -module ../../../mod -I/usr/local/GEOS-Chem/lib/ -I/usr/local/GEOS-Chem/include/ -c -free hcox_custom_mod.F90
ifort -cpp -w -auto -noalign -convert big_endian -O2 -vec-report0 -fp-model source -qopenmp -mcmodel=medium -shared-intel -traceback -DMODEL_CLASSIC -DLINUX_IFORT -DUSE_REAL8 -module ../../../mod -I/usr/local/GEOS-Chem/lib/ -I/usr/local/GEOS-Chem/include/ -c -free hcox_dustginoux_mod.F90
ifort -cpp -w -auto -noalign -convert big_endian -O2 -vec-report0 -fp-model source -qopenmp -mcmodel=medium -shared-intel -traceback -DMODEL_CLASSIC -DLINUX_IFORT -DUSE_REAL8 -module ../../../mod -I/usr/local/GEOS-Chem/lib/ -I/usr/local/GEOS-Chem/include/ -c -free hcox_finn_mod.F90
ifort -cpp -w -auto -noalign -convert big_endian -O2 -vec-report0 -fp-model source -qopenmp -mcmodel=medium -shared-intel -traceback -DMODEL_CLASSIC -DLINUX_IFORT -DUSE_REAL8 -module ../../../mod -I/usr/local/GEOS-Chem/lib/ -I/usr/local/GEOS-Chem/include/ -c -free hcox_gc_POPs_mod.F90
ifort -cpp -w -auto -noalign -convert big_endian -O2 -vec-report0 -fp-model source -qopenmp -mcmodel=medium -shared-intel -traceback -DMODEL_CLASSIC -DLINUX_IFORT -DUSE_REAL8 -module ../../../mod -I/usr/local/GEOS-Chem/lib/ -I/usr/local/GEOS-Chem/include/ -c -free hcox_gc_RnPbBe_mod.F90
ifort -cpp -w -auto -noalign -convert big_endian -O2 -vec-report0 -fp-model source -qopenmp -mcmodel=medium -shared-intel -traceback -DMODEL_CLASSIC -DLINUX_IFORT -DUSE_REAL8 -module ../../../mod -I/usr/local/GEOS-Chem/lib/ -I/usr/local/GEOS-Chem/include/ -c -free hcox_gfed_mod.F90
ifort -cpp -w -auto -noalign -convert big_endian -O2 -vec-report0 -fp-model source -qopenmp -mcmodel=medium -shared-intel -traceback -DMODEL_CLASSIC -DLINUX_IFORT -DUSE_REAL8 -module ../../../mod -I/usr/local/GEOS-Chem/lib/ -I/usr/local/GEOS-Chem/include/ -c -free hcox_iodine_mod.F90
ifort -cpp -w -auto -noalign -convert big_endian -O2 -vec-report0 -fp-model source -qopenmp -mcmodel=medium -shared-intel -traceback -DMODEL_CLASSIC -DLINUX_IFORT -DUSE_REAL8 -module ../../../mod -I/usr/local/GEOS-Chem/lib/ -I/usr/local/GEOS-Chem/include/ -c -free hcox_paranox_mod.F90
ifort -cpp -w -auto -noalign -convert big_endian -O2 -vec-report0 -fp-model source -qopenmp -mcmodel=medium -shared-intel -traceback -DMODEL_CLASSIC -DLINUX_IFORT -DUSE_REAL8 -module ../../../mod -I/usr/local/GEOS-Chem/lib/ -I/usr/local/GEOS-Chem/include/ -c -free hcox_lightnox_mod.F90
ifort -cpp -w -auto -noalign -convert big_endian -O2 -vec-report0 -fp-model source -qopenmp -mcmodel=medium -shared-intel -traceback -DMODEL_CLASSIC -DLINUX_IFORT -DUSE_REAL8 -module ../../../mod -I/usr/local/GEOS-Chem/lib/ -I/usr/local/GEOS-Chem/include/ -c -free hcox_megan_mod.F90
ifort -cpp -w -auto -noalign -convert big_endian -O2 -vec-report0 -fp-model source -qopenmp -mcmodel=medium -shared-intel -traceback -DMODEL_CLASSIC -DLINUX_IFORT -DUSE_REAL8 -module ../../../mod -I/usr/local/GEOS-Chem/lib/ -I/usr/local/GEOS-Chem/include/ -c -free hcox_seaflux_mod.F90
ifort -cpp -w -auto -noalign -convert big_endian -O2 -vec-report0 -fp-model source -qopenmp -mcmodel=medium -shared-intel -traceback -DMODEL_CLASSIC -DLINUX_IFORT -DUSE_REAL8 -module ../../../mod -I/usr/local/GEOS-Chem/lib/ -I/usr/local/GEOS-Chem/include/ -c -free hcox_seasalt_mod.F90
ifort -cpp -w -auto -noalign -convert big_endian -O2 -vec-report0 -fp-model source -qopenmp -mcmodel=medium -shared-intel -traceback -DMODEL_CLASSIC -DLINUX_IFORT -DUSE_REAL8 -module ../../../mod -I/usr/local/GEOS-Chem/lib/ -I/usr/local/GEOS-Chem/include/ -c -free hcox_soilnox_mod.F90
ifort -cpp -w -auto -noalign -convert big_endian -O2 -vec-report0 -fp-model source -qopenmp -mcmodel=medium -shared-intel -traceback -DMODEL_CLASSIC -DLINUX_IFORT -DUSE_REAL8 -module ../../../mod -I/usr/local/GEOS-Chem/lib/ -I/usr/local/GEOS-Chem/include/ -c -free hcox_tomas_jeagle_mod.F90
ifort -cpp -w -auto -noalign -convert big_endian -O2 -vec-report0 -fp-model source -qopenmp -mcmodel=medium -shared-intel -traceback -DMODEL_CLASSIC -DLINUX_IFORT -DUSE_REAL8 -module ../../../mod -I/usr/local/GEOS-Chem/lib/ -I/usr/local/GEOS-Chem/include/ -c -free hcox_volcano_mod.F90
ifort -cpp -w -auto -noalign -convert big_endian -O2 -vec-report0 -fp-model source -qopenmp -mcmodel=medium -shared-intel -traceback -DMODEL_CLASSIC -DLINUX_IFORT -DUSE_REAL8 -module ../../../mod -I/usr/local/GEOS-Chem/lib/ -I/usr/local/GEOS-Chem/include/ -c -free hcox_driver_mod.F90
ar crs libHCOX.a hcox_dustdead_mod.o hcox_tomas_dustdead_mod.o drydep_toolbox_mod.o hcox_ch4wetland_mod.o hcox_custom_mod.o hcox_driver_mod.o hcox_dustginoux_mod.o hcox_finn_mod.o hcox_gc_POPs_mod.o hcox_gc_RnPbBe_mod.o hcox_gfed_mod.o hcox_iodine_mod.o hcox_lightnox_mod.o hcox_megan_mod.o hcox_paranox_mod.o hcox_seaflux_mod.o hcox_seasalt_mod.o hcox_soilnox_mod.o hcox_state_mod.o hcox_tomas_jeagle_mod.o hcox_tools_mod.o hcox_volcano_mod.o ocean_toolbox_mod.o
mv libHCOX.a ../../../lib
make[7]: Leaving directory '/home/disk/cindylou/ujongebl/mod_dms_12.9.3/HEMCO/src/Extensions'
make[6]: Leaving directory '/home/disk/cindylou/ujongebl/mod_dms_12.9.3/HEMCO'
make[6]: Entering directory '/home/disk/cindylou/ujongebl/mod_dms_12.9.3/HEMCO'
make[7]: Entering directory '/home/disk/cindylou/ujongebl/mod_dms_12.9.3/HEMCO/src/Interfaces'
ifort -cpp -w -auto -noalign -convert big_endian -O2 -vec-report0 -fp-model source -qopenmp -mcmodel=medium -shared-intel -traceback -DMODEL_CLASSIC -DLINUX_IFORT -DUSE_REAL8 -module ../../../mod -I/usr/local/GEOS-Chem/lib/ -I/usr/local/GEOS-Chem/include/ -c -free hcoi_esmf_mod.F90
ifort -cpp -w -auto -noalign -convert big_endian -O2 -vec-report0 -fp-model source -qopenmp -mcmodel=medium -shared-intel -traceback -DMODEL_CLASSIC -DLINUX_IFORT -DUSE_REAL8 -module ../../../mod -I/usr/local/GEOS-Chem/lib/ -I/usr/local/GEOS-Chem/include/ -c -free hcoi_standalone_mod.F90
ifort -cpp -w -auto -noalign -convert big_endian -O2 -vec-report0 -fp-model source -qopenmp -mcmodel=medium -shared-intel -traceback -DMODEL_CLASSIC -DLINUX_IFORT -DUSE_REAL8 -module ../../../mod -I/usr/local/GEOS-Chem/lib/ -I/usr/local/GEOS-Chem/include/ -c -free hemco_standalone.F90
ar crs libHCOI.a hcoi_esmf_mod.o hcoi_standalone_mod.o hemco_standalone.o
mv libHCOI.a ../../../lib
make[7]: Leaving directory '/home/disk/cindylou/ujongebl/mod_dms_12.9.3/HEMCO/src/Interfaces'
make[6]: Leaving directory '/home/disk/cindylou/ujongebl/mod_dms_12.9.3/HEMCO'
make[6]: Entering directory '/home/disk/cindylou/ujongebl/mod_dms_12.9.3/HEMCO'
make[7]: Entering directory '/home/disk/cindylou/ujongebl/mod_dms_12.9.3/HEMCO/src/Interfaces'
make[8]: Entering directory '/home/disk/cindylou/ujongebl/mod_dms_12.9.3/HEMCO/src/Interfaces'
ar crs libHCOI.a hcoi_esmf_mod.o hcoi_standalone_mod.o hemco_standalone.o
mv libHCOI.a ../../../lib
make[8]: Leaving directory '/home/disk/cindylou/ujongebl/mod_dms_12.9.3/HEMCO/src/Interfaces'
make[8]: Entering directory '/home/disk/cindylou/ujongebl/mod_dms_12.9.3/HEMCO/src/Interfaces'
ifort -cpp -w -auto -noalign -convert big_endian -O2 -vec-report0 -fp-model source -qopenmp -mcmodel=medium -shared-intel -traceback -DMODEL_CLASSIC -DLINUX_IFORT -DUSE_REAL8 hcoi_esmf_mod.o hcoi_standalone_mod.o hemco_standalone.o -L../../../lib -lHCOI -lHCOX -lHCO -lGeosUtil -lHeaders -lNcUtils -L/usr/local/GEOS-Chem/lib -lnetcdff -L/usr/local/GEOS-Chem//lib -lnetcdf -lnetcdf -L/usr/local/GEOS-Chem/lib -L/usr/local/GEOS-Chem//lib -lnetcdf -lhdf5_hl -lhdf5 -lm -lz -o hemco_standalone.x
cp -f hemco_standalone.x ../../../bin
make[8]: Leaving directory '/home/disk/cindylou/ujongebl/mod_dms_12.9.3/HEMCO/src/Interfaces'
make[7]: Leaving directory '/home/disk/cindylou/ujongebl/mod_dms_12.9.3/HEMCO/src/Interfaces'
make[6]: Leaving directory '/home/disk/cindylou/ujongebl/mod_dms_12.9.3/HEMCO'
make[5]: Leaving directory '/home/disk/cindylou/ujongebl/mod_dms_12.9.3/HEMCO'
make[4]: Leaving directory '/home/disk/cindylou/ujongebl/mod_dms_12.9.3/GeosCore'
make[4]: Entering directory '/home/disk/cindylou/ujongebl/mod_dms_12.9.3/GeosCore'
make[5]: Entering directory '/home/disk/cindylou/ujongebl/mod_dms_12.9.3/ISORROPIA'
ifort -cpp -w -auto -noalign -convert big_endian -O2 -vec-report0 -fp-model source -qopenmp -mcmodel=medium -shared-intel -traceback -DMODEL_CLASSIC -DLINUX_IFORT -DUSE_REAL8 -module ../mod -I/usr/local/GEOS-Chem/lib/ -I/usr/local/GEOS-Chem/include/ -r8 -c isorropiaII_main_mod.F
ar crs libIsorropia.a isorropiaII_main_mod.o
mv libIsorropia.a ../lib
make[5]: Leaving directory '/home/disk/cindylou/ujongebl/mod_dms_12.9.3/ISORROPIA'
make[4]: Leaving directory '/home/disk/cindylou/ujongebl/mod_dms_12.9.3/GeosCore'
make[4]: Entering directory '/home/disk/cindylou/ujongebl/mod_dms_12.9.3/GeosCore'
make[4]: Nothing to be done for 'librad'.
make[4]: Leaving directory '/home/disk/cindylou/ujongebl/mod_dms_12.9.3/GeosCore'
make[4]: Entering directory '/home/disk/cindylou/ujongebl/mod_dms_12.9.3/GeosCore'
make[4]: Nothing to be done for 'libapm'.
make[4]: Leaving directory '/home/disk/cindylou/ujongebl/mod_dms_12.9.3/GeosCore'
make[4]: Entering directory '/home/disk/cindylou/ujongebl/mod_dms_12.9.3/GeosCore'
ifort -cpp -w -auto -noalign -convert big_endian -O2 -vec-report0 -fp-model source -qopenmp -mcmodel=medium -shared-intel -traceback -DMODEL_CLASSIC -DLINUX_IFORT -DUSE_REAL8 -module ../mod -I/usr/local/GEOS-Chem/lib/ -I/usr/local/GEOS-Chem/include/ -c -free diagnostics_mod.F90
ifort -cpp -w -auto -noalign -convert big_endian -O2 -vec-report0 -fp-model source -qopenmp -mcmodel=medium -shared-intel -traceback -DMODEL_CLASSIC -DLINUX_IFORT -DUSE_REAL8 -module ../mod -I/usr/local/GEOS-Chem/lib/ -I/usr/local/GEOS-Chem/include/ -c -free diag_mod.F90
ifort -cpp -w -auto -noalign -convert big_endian -O2 -vec-report0 -fp-model source -qopenmp -mcmodel=medium -shared-intel -traceback -DMODEL_CLASSIC -DLINUX_IFORT -DUSE_REAL8 -module ../mod -I/usr/local/GEOS-Chem/lib/ -I/usr/local/GEOS-Chem/include/ -c -free hco_interface_mod.F90
ifort -cpp -w -auto -noalign -convert big_endian -O2 -vec-report0 -fp-model source -qopenmp -mcmodel=medium -shared-intel -traceback -DMODEL_CLASSIC -DLINUX_IFORT -DUSE_REAL8 -module ../mod -I/usr/local/GEOS-Chem/lib/ -I/usr/local/GEOS-Chem/include/ -c -free calc_met_mod.F90
ifort -cpp -w -auto -noalign -convert big_endian -O2 -vec-report0 -fp-model source -qopenmp -mcmodel=medium -shared-intel -traceback -DMODEL_CLASSIC -DLINUX_IFORT -DUSE_REAL8 -module ../mod -I/usr/local/GEOS-Chem/lib/ -I/usr/local/GEOS-Chem/include/ -c -free get_ndep_mod.F90
ifort -cpp -w -auto -noalign -convert big_endian -O2 -vec-report0 -fp-model source -qopenmp -mcmodel=medium -shared-intel -traceback -DMODEL_CLASSIC -DLINUX_IFORT -DUSE_REAL8 -module ../mod -I/usr/local/GEOS-Chem/lib/ -I/usr/local/GEOS-Chem/include/ -c -free YuIMN_Code.F90
ifort -cpp -w -auto -noalign -convert big_endian -O2 -vec-report0 -fp-model source -qopenmp -mcmodel=medium -shared-intel -traceback -DMODEL_CLASSIC -DLINUX_IFORT -DUSE_REAL8 -module ../mod -I/usr/local/GEOS-Chem/lib/ -I/usr/local/GEOS-Chem/include/ -c -free toms_mod.F90
ifort -cpp -w -auto -noalign -convert big_endian -O2 -vec-report0 -fp-model source -qopenmp -mcmodel=medium -shared-intel -traceback -DMODEL_CLASSIC -DLINUX_IFORT -DUSE_REAL8 -module ../mod -I/usr/local/GEOS-Chem/lib/ -I/usr/local/GEOS-Chem/include/ -c -free diag_oh_mod.F90
ifort -cpp -w -auto -noalign -convert big_endian -O2 -vec-report0 -fp-model source -qopenmp -mcmodel=medium -shared-intel -traceback -DMODEL_CLASSIC -DLINUX_IFORT -DUSE_REAL8 -module ../mod -I/usr/local/GEOS-Chem/lib/ -I/usr/local/GEOS-Chem/include/ -c -free vdiff_pre_mod.F90
ifort -cpp -w -auto -noalign -convert big_endian -O2 -vec-report0 -fp-model source -qopenmp -mcmodel=medium -shared-intel -traceback -DMODEL_CLASSIC -DLINUX_IFORT -DUSE_REAL8 -module ../mod -I/usr/local/GEOS-Chem/lib/ -I/usr/local/GEOS-Chem/include/ -c -free diag03_mod.F90
ifort -cpp -w -auto -noalign -convert big_endian -O2 -vec-report0 -fp-model source -qopenmp -mcmodel=medium -shared-intel -traceback -DMODEL_CLASSIC -DLINUX_IFORT -DUSE_REAL8 -module ../mod -I/usr/local/GEOS-Chem/lib/ -I/usr/local/GEOS-Chem/include/ -c -free modis_lai_mod.F90
ifort -cpp -w -auto -noalign -convert big_endian -O2 -vec-report0 -fp-model source -qopenmp -mcmodel=medium -shared-intel -traceback -DMODEL_CLASSIC -DLINUX_IFORT -DUSE_REAL8 -module ../mod -I/usr/local/GEOS-Chem/lib/ -I/usr/local/GEOS-Chem/include/ -c -free diag53_mod.F90
ifort -cpp -w -auto -noalign -convert big_endian -O2 -vec-report0 -fp-model source -qopenmp -mcmodel=medium -shared-intel -traceback -DMODEL_CLASSIC -DLINUX_IFORT -DUSE_REAL8 -module ../mod -I/usr/local/GEOS-Chem/lib/ -I/usr/local/GEOS-Chem/include/ -c -free rpmares_mod.F90
ifort -cpp -w -auto -noalign -convert big_endian -O2 -vec-report0 -fp-model source -qopenmp -mcmodel=medium -shared-intel -traceback -DMODEL_CLASSIC -DLINUX_IFORT -DUSE_REAL8 -module ../mod -I/usr/local/GEOS-Chem/lib/ -I/usr/local/GEOS-Chem/include/ -c -free RnPbBe_mod.F90
ifort -cpp -w -auto -noalign -convert big_endian -O2 -vec-report0 -fp-model source -qopenmp -mcmodel=medium -shared-intel -traceback -DMODEL_CLASSIC -DLINUX_IFORT -DUSE_REAL8 -module ../mod -I/usr/local/GEOS-Chem/lib/ -I/usr/local/GEOS-Chem/include/ -c -free linoz_mod.F90
ifort -cpp -w -auto -noalign -convert big_endian -O2 -vec-report0 -fp-model source -qopenmp -mcmodel=medium -shared-intel -traceback -DMODEL_CLASSIC -DLINUX_IFORT -DUSE_REAL8 -module ../mod -I/usr/local/GEOS-Chem/lib/ -I/usr/local/GEOS-Chem/include/ -c -free uvalbedo_mod.F90
ifort -cpp -w -auto -noalign -convert big_endian -O2 -vec-report0 -fp-model source -qopenmp -mcmodel=medium -shared-intel -traceback -DMODEL_CLASSIC -DLINUX_IFORT -DUSE_REAL8 -module ../mod -I/usr/local/GEOS-Chem/lib/ -I/usr/local/GEOS-Chem/include/ -c -free cldice_HBrHOBr_rxn.F90
ifort -cpp -w -auto -noalign -convert big_endian -O2 -vec-report0 -fp-model source -qopenmp -mcmodel=medium -shared-intel -traceback -DMODEL_CLASSIC -DLINUX_IFORT -DUSE_REAL8 -module ../mod -I/usr/local/GEOS-Chem/lib/ -I/usr/local/GEOS-Chem/include/ -c -free co2_mod.F90
ifort -cpp -w -auto -noalign -convert big_endian -O2 -vec-report0 -fp-model source -qopenmp -mcmodel=medium -shared-intel -traceback -DMODEL_CLASSIC -DLINUX_IFORT -DUSE_REAL8 -module ../mod -I/usr/local/GEOS-Chem/lib/ -I/usr/local/GEOS-Chem/include/ -c -free pjc_pfix_mod.F90
ifort -cpp -w -auto -noalign -convert big_endian -O2 -vec-report0 -fp-model source -qopenmp -mcmodel=medium -shared-intel -traceback -DMODEL_CLASSIC -DLINUX_IFORT -DUSE_REAL8 -module ../mod -I/usr/local/GEOS-Chem/lib/ -I/usr/local/GEOS-Chem/include/ -c -free tpcore_fvdas_mod.F90
ifort -cpp -w -auto -noalign -convert big_endian -O2 -vec-report0 -fp-model source -qopenmp -mcmodel=medium -shared-intel -traceback -DMODEL_CLASSIC -DLINUX_IFORT -DUSE_REAL8 -module ../mod -I/usr/local/GEOS-Chem/lib/ -I/usr/local/GEOS-Chem/include/ -c -free -r8 tpcore_window_mod.F90
ifort -cpp -w -auto -noalign -convert big_endian -O2 -vec-report0 -fp-model source -qopenmp -mcmodel=medium -shared-intel -traceback -DMODEL_CLASSIC -DLINUX_IFORT -DUSE_REAL8 -module ../mod -I/usr/local/GEOS-Chem/lib/ -I/usr/local/GEOS-Chem/include/ -c -free pjc_pfix_window_mod.F90
ifort -cpp -w -auto -noalign -convert big_endian -O2 -vec-report0 -fp-model source -qopenmp -mcmodel=medium -shared-intel -traceback -DMODEL_CLASSIC -DLINUX_IFORT -DUSE_REAL8 -module ../mod -I/usr/local/GEOS-Chem/lib/ -I/usr/local/GEOS-Chem/include/ -c -free hcoi_gc_diagn_mod.F90
ifort -cpp -w -auto -noalign -convert big_endian -O2 -vec-report0 -fp-model source -qopenmp -mcmodel=medium -shared-intel -traceback -DMODEL_CLASSIC -DLINUX_IFORT -DUSE_REAL8 -module ../mod -I/usr/local/GEOS-Chem/lib/ -I/usr/local/GEOS-Chem/include/ -c -free get_met_mod.F90
ifort -cpp -w -auto -noalign -convert big_endian -O2 -vec-report0 -fp-model source -qopenmp -mcmodel=medium -shared-intel -traceback -DMODEL_CLASSIC -DLINUX_IFORT -DUSE_REAL8 -module ../mod -I/usr/local/GEOS-Chem/lib/ -I/usr/local/GEOS-Chem/include/ -c -free set_prof_o3.F90
ifort -cpp -w -auto -noalign -convert big_endian -O2 -vec-report0 -fp-model source -qopenmp -mcmodel=medium -shared-intel -traceback -DMODEL_CLASSIC -DLINUX_IFORT -DUSE_REAL8 -module ../mod -I/usr/local/GEOS-Chem/lib/ -I/usr/local/GEOS-Chem/include/ -c -free diag1.F90
ifort -cpp -w -auto -noalign -convert big_endian -O2 -vec-report0 -fp-model source -qopenmp -mcmodel=medium -shared-intel -traceback -DMODEL_CLASSIC -DLINUX_IFORT -DUSE_REAL8 -module ../mod -I/usr/local/GEOS-Chem/lib/ -I/usr/local/GEOS-Chem/include/ -c -free exchange_mod.F90
ifort -cpp -w -auto -noalign -convert big_endian -O2 -vec-report0 -fp-model source -qopenmp -mcmodel=medium -shared-intel -traceback -DMODEL_CLASSIC -DLINUX_IFORT -DUSE_REAL8 -module ../mod -I/usr/local/GEOS-Chem/lib/ -I/usr/local/GEOS-Chem/include/ -c -free gosat_ch4_mod.F90
ifort -cpp -w -auto -noalign -convert big_endian -O2 -vec-report0 -fp-model source -qopenmp -mcmodel=medium -shared-intel -traceback -DMODEL_CLASSIC -DLINUX_IFORT -DUSE_REAL8 -module ../mod -I/usr/local/GEOS-Chem/lib/ -I/usr/local/GEOS-Chem/include/ -c -free initialize.F90
ifort -cpp -w -auto -noalign -convert big_endian -O2 -vec-report0 -fp-model source -qopenmp -mcmodel=medium -shared-intel -traceback -DMODEL_CLASSIC -DLINUX_IFORT -DUSE_REAL8 -module ../mod -I/usr/local/GEOS-Chem/lib/ -I/usr/local/GEOS-Chem/include/ -c -free olson_landmap_mod.F90
ifort -cpp -w -auto -noalign -convert big_endian -O2 -vec-report0 -fp-model source -qopenmp -mcmodel=medium -shared-intel -traceback -DMODEL_CLASSIC -DLINUX_IFORT -DUSE_REAL8 -module ../mod -I/usr/local/GEOS-Chem/lib/ -I/usr/local/GEOS-Chem/include/ -c -free tccon_ch4_mod.F90
ifort -cpp -w -auto -noalign -convert big_endian -O2 -vec-report0 -fp-model source -qopenmp -mcmodel=medium -shared-intel -traceback -DMODEL_CLASSIC -DLINUX_IFORT -DUSE_REAL8 -module ../mod -I/usr/local/GEOS-Chem/lib/ -I/usr/local/GEOS-Chem/include/ -c -free mapping_mod.F90
ifort -cpp -w -auto -noalign -convert big_endian -O2 -vec-report0 -fp-model source -qopenmp -mcmodel=medium -shared-intel -traceback -DMODEL_CLASSIC -DLINUX_IFORT -DUSE_REAL8 -module ../mod -I/usr/local/GEOS-Chem/lib/ -I/usr/local/GEOS-Chem/include/ -c -free pbl_mix_mod.F90
ifort -cpp -w -auto -noalign -convert big_endian -O2 -vec-report0 -fp-model source -qopenmp -mcmodel=medium -shared-intel -traceback -DMODEL_CLASSIC -DLINUX_IFORT -DUSE_REAL8 -module ../mod -I/usr/local/GEOS-Chem/lib/ -I/usr/local/GEOS-Chem/include/ -c -free isorropiaII_mod.F90
ifort -cpp -w -auto -noalign -convert big_endian -O2 -vec-report0 -fp-model source -qopenmp -mcmodel=medium -shared-intel -traceback -DMODEL_CLASSIC -DLINUX_IFORT -DUSE_REAL8 -module ../mod -I/usr/local/GEOS-Chem/lib/ -I/usr/local/GEOS-Chem/include/ -c -free tomas_mod.F90
ifort -cpp -w -auto -noalign -convert big_endian -O2 -vec-report0 -fp-model source -qopenmp -mcmodel=medium -shared-intel -traceback -DMODEL_CLASSIC -DLINUX_IFORT -DUSE_REAL8 -module ../mod -I/usr/local/GEOS-Chem/lib/ -I/usr/local/GEOS-Chem/include/ -c -free fast_jx_mod.F90
ifort -cpp -w -auto -noalign -convert big_endian -O2 -vec-report0 -fp-model source -qopenmp -mcmodel=medium -shared-intel -traceback -DMODEL_CLASSIC -DLINUX_IFORT -DUSE_REAL8 -module ../mod -I/usr/local/GEOS-Chem/lib/ -I/usr/local/GEOS-Chem/include/ -c -free global_ch4_mod.F90
ifort -cpp -w -auto -noalign -convert big_endian -O2 -vec-report0 -fp-model source -qopenmp -mcmodel=medium -shared-intel -traceback -DMODEL_CLASSIC -DLINUX_IFORT -DUSE_REAL8 -module ../mod -I/usr/local/GEOS-Chem/lib/ -I/usr/local/GEOS-Chem/include/ -c -free depo_mercury_mod.F90
ifort -cpp -w -auto -noalign -convert big_endian -O2 -vec-report0 -fp-model source -qopenmp -mcmodel=medium -shared-intel -traceback -DMODEL_CLASSIC -DLINUX_IFORT -DUSE_REAL8 -module ../mod -I/usr/local/GEOS-Chem/lib/ -I/usr/local/GEOS-Chem/include/ -c -free strat_chem_mod.F90
ifort -cpp -w -auto -noalign -convert big_endian -O2 -vec-report0 -fp-model source -qopenmp -mcmodel=medium -shared-intel -traceback -DMODEL_CLASSIC -DLINUX_IFORT -DUSE_REAL8 -module ../mod -I/usr/local/GEOS-Chem/lib/ -I/usr/local/GEOS-Chem/include/ -c -free tagged_co_mod.F90
ifort -cpp -w -auto -noalign -convert big_endian -O2 -vec-report0 -fp-model source -qopenmp -mcmodel=medium -shared-intel -traceback -DMODEL_CLASSIC -DLINUX_IFORT -DUSE_REAL8 -module ../mod -I/usr/local/GEOS-Chem/lib/ -I/usr/local/GEOS-Chem/include/ -c -free diag51_mod.F90
ifort -cpp -w -auto -noalign -convert big_endian -O2 -vec-report0 -fp-model source -qopenmp -mcmodel=medium -shared-intel -traceback -DMODEL_CLASSIC -DLINUX_IFORT -DUSE_REAL8 -module ../mod -I/usr/local/GEOS-Chem/lib/ -I/usr/local/GEOS-Chem/include/ -c -free diag51b_mod.F90
ifort -cpp -w -auto -noalign -convert big_endian -O2 -vec-report0 -fp-model source -qopenmp -mcmodel=medium -shared-intel -traceback -DMODEL_CLASSIC -DLINUX_IFORT -DUSE_REAL8 -module ../mod -I/usr/local/GEOS-Chem/lib/ -I/usr/local/GEOS-Chem/include/ -c -free sfcvmr_mod.F90
ifort -cpp -w -auto -noalign -convert big_endian -O2 -vec-report0 -fp-model source -qopenmp -mcmodel=medium -shared-intel -traceback -DMODEL_CLASSIC -DLINUX_IFORT -DUSE_REAL8 -module ../mod -I/usr/local/GEOS-Chem/lib/ -I/usr/local/GEOS-Chem/include/ -c -free transport_mod.F90
ifort -cpp -w -auto -noalign -convert big_endian -O2 -vec-report0 -fp-model source -qopenmp -mcmodel=medium -shared-intel -traceback -DMODEL_CLASSIC -DLINUX_IFORT -DUSE_REAL8 -module ../mod -I/usr/local/GEOS-Chem/lib/ -I/usr/local/GEOS-Chem/include/ -c -free flexgrid_read_mod.F90
ifort -cpp -w -auto -noalign -convert big_endian -O2 -vec-report0 -fp-model source -qopenmp -mcmodel=medium -shared-intel -traceback -DMODEL_CLASSIC -DLINUX_IFORT -DUSE_REAL8 -module ../mod -I/usr/local/GEOS-Chem/lib/ -I/usr/local/GEOS-Chem/include/ -c -free set_global_ch4_mod.F90
ifort -cpp -w -auto -noalign -convert big_endian -O2 -vec-report0 -fp-model source -qopenmp -mcmodel=medium -shared-intel -traceback -DMODEL_CLASSIC -DLINUX_IFORT -DUSE_REAL8 -module ../mod -I/usr/local/GEOS-Chem/lib/ -I/usr/local/GEOS-Chem/include/ -c -free rrtmg_rad_transfer_mod.F90
ifort -cpp -w -auto -noalign -convert big_endian -O2 -vec-report0 -fp-model source -qopenmp -mcmodel=medium -shared-intel -traceback -DMODEL_CLASSIC -DLINUX_IFORT -DUSE_REAL8 -module ../mod -I/usr/local/GEOS-Chem/lib/ -I/usr/local/GEOS-Chem/include/ -c -free apm_driv_mod.F90
ifort -cpp -w -auto -noalign -convert big_endian -O2 -vec-report0 -fp-model source -qopenmp -mcmodel=medium -shared-intel -traceback -DMODEL_CLASSIC -DLINUX_IFORT -DUSE_REAL8 -module ../mod -I/usr/local/GEOS-Chem/lib/ -I/usr/local/GEOS-Chem/include/ -c -free ocean_mercury_mod.F90
ifort -cpp -w -auto -noalign -convert big_endian -O2 -vec-report0 -fp-model source -qopenmp -mcmodel=medium -shared-intel -traceback -DMODEL_CLASSIC -DLINUX_IFORT -DUSE_REAL8 -module ../mod -I/usr/local/GEOS-Chem/lib/ -I/usr/local/GEOS-Chem/include/ -c -free land_mercury_mod.F90
ifort -cpp -w -auto -noalign -convert big_endian -O2 -vec-report0 -fp-model source -qopenmp -mcmodel=medium -shared-intel -traceback -DMODEL_CLASSIC -DLINUX_IFORT -DUSE_REAL8 -module ../mod -I/usr/local/GEOS-Chem/lib/ -I/usr/local/GEOS-Chem/include/ -c -free wetscav_mod.F90
ifort -cpp -w -auto -noalign -convert big_endian -O2 -vec-report0 -fp-model source -qopenmp -mcmodel=medium -shared-intel -traceback -DMODEL_CLASSIC -DLINUX_IFORT -DUSE_REAL8 -module ../mod -I/usr/local/GEOS-Chem/lib/ -I/usr/local/GEOS-Chem/include/ -c -free drydep_mod.F90
ifort -cpp -w -auto -noalign -convert big_endian -O2 -vec-report0 -fp-model source -qopenmp -mcmodel=medium -shared-intel -traceback -DMODEL_CLASSIC -DLINUX_IFORT -DUSE_REAL8 -module ../mod -I/usr/local/GEOS-Chem/lib/ -I/usr/local/GEOS-Chem/include/ -c -free ucx_mod.F90
ifort -cpp -w -auto -noalign -convert big_endian -O2 -vec-report0 -fp-model source -qopenmp -mcmodel=medium -shared-intel -traceback -DMODEL_CLASSIC -DLINUX_IFORT -DUSE_REAL8 -module ../mod -I/usr/local/GEOS-Chem/lib/ -I/usr/local/GEOS-Chem/include/ -c -free global_br_mod.F90
ifort -cpp -w -auto -noalign -convert big_endian -O2 -vec-report0 -fp-model source -qopenmp -mcmodel=medium -shared-intel -traceback -DMODEL_CLASSIC -DLINUX_IFORT -DUSE_REAL8 -module ../mod -I/usr/local/GEOS-Chem/lib/ -I/usr/local/GEOS-Chem/include/ -c -free pops_mod.F90
ifort -cpp -w -auto -noalign -convert big_endian -O2 -vec-report0 -fp-model source -qopenmp -mcmodel=medium -shared-intel -traceback -DMODEL_CLASSIC -DLINUX_IFORT -DUSE_REAL8 -module ../mod -I/usr/local/GEOS-Chem/lib/ -I/usr/local/GEOS-Chem/include/ -c -free seasalt_mod.F90
ifort -cpp -w -auto -noalign -convert big_endian -O2 -vec-report0 -fp-model source -qopenmp -mcmodel=medium -shared-intel -traceback -DMODEL_CLASSIC -DLINUX_IFORT -DUSE_REAL8 -module ../mod -I/usr/local/GEOS-Chem/lib/ -I/usr/local/GEOS-Chem/include/ -c -free tagged_o3_mod.F90
ifort -cpp -w -auto -noalign -convert big_endian -O2 -vec-report0 -fp-model source -qopenmp -mcmodel=medium -shared-intel -traceback -DMODEL_CLASSIC -DLINUX_IFORT -DUSE_REAL8 -module ../mod -I/usr/local/GEOS-Chem/lib/ -I/usr/local/GEOS-Chem/include/ -c -free planeflight_mod.F90
ifort -cpp -w -auto -noalign -convert big_endian -O2 -vec-report0 -fp-model source -qopenmp -mcmodel=medium -shared-intel -traceback -DMODEL_CLASSIC -DLINUX_IFORT -DUSE_REAL8 -module ../mod -I/usr/local/GEOS-Chem/lib/ -I/usr/local/GEOS-Chem/include/ -c -free hcoi_gc_main_mod.F90
ifort -cpp -w -auto -noalign -convert big_endian -O2 -vec-report0 -fp-model source -qopenmp -mcmodel=medium -shared-intel -traceback -DMODEL_CLASSIC -DLINUX_IFORT -DUSE_REAL8 -module ../mod -I/usr/local/GEOS-Chem/lib/ -I/usr/local/GEOS-Chem/include/ -c -free diag3.F90
ifort -cpp -w -auto -noalign -convert big_endian -O2 -vec-report0 -fp-model source -qopenmp -mcmodel=medium -shared-intel -traceback -DMODEL_CLASSIC -DLINUX_IFORT -DUSE_REAL8 -module ../mod -I/usr/local/GEOS-Chem/lib/ -I/usr/local/GEOS-Chem/include/ -c -free gamap_mod.F90
ifort -cpp -w -auto -noalign -convert big_endian -O2 -vec-report0 -fp-model source -qopenmp -mcmodel=medium -shared-intel -traceback -DMODEL_CLASSIC -DLINUX_IFORT -DUSE_REAL8 -module ../mod -I/usr/local/GEOS-Chem/lib/ -I/usr/local/GEOS-Chem/include/ -c -free dust_mod.F90
ifort -cpp -w -auto -noalign -convert big_endian -O2 -vec-report0 -fp-model source -qopenmp -mcmodel=medium -shared-intel -traceback -DMODEL_CLASSIC -DLINUX_IFORT -DUSE_REAL8 -module ../mod -I/usr/local/GEOS-Chem/lib/ -I/usr/local/GEOS-Chem/include/ -c -free mercury_mod.F90
ifort -cpp -w -auto -noalign -convert big_endian -O2 -vec-report0 -fp-model source -qopenmp -mcmodel=medium -shared-intel -traceback -DMODEL_CLASSIC -DLINUX_IFORT -DUSE_REAL8 -module ../mod -I/usr/local/GEOS-Chem/lib/ -I/usr/local/GEOS-Chem/include/ -c -free aero_drydep.F90
ifort -cpp -w -auto -noalign -convert big_endian -O2 -vec-report0 -fp-model source -qopenmp -mcmodel=medium -shared-intel -traceback -DMODEL_CLASSIC -DLINUX_IFORT -DUSE_REAL8 -module ../mod -I/usr/local/GEOS-Chem/lib/ -I/usr/local/GEOS-Chem/include/ -c -free aerosol_mod.F90
ifort -cpp -w -auto -noalign -convert big_endian -O2 -vec-report0 -fp-model source -qopenmp -mcmodel=medium -shared-intel -traceback -DMODEL_CLASSIC -DLINUX_IFORT -DUSE_REAL8 -module ../mod -I/usr/local/GEOS-Chem/lib/ -I/usr/local/GEOS-Chem/include/ -c -free sulfate_mod.F90
ifort -cpp -w -auto -noalign -convert big_endian -O2 -vec-report0 -fp-model source -qopenmp -mcmodel=medium -shared-intel -traceback -DMODEL_CLASSIC -DLINUX_IFORT -DUSE_REAL8 -module ../mod -I/usr/local/GEOS-Chem/lib/ -I/usr/local/GEOS-Chem/include/ -c -free input_mod.F90
ifort -cpp -w -auto -noalign -convert big_endian -O2 -vec-report0 -fp-model source -qopenmp -mcmodel=medium -shared-intel -traceback -DMODEL_CLASSIC -DLINUX_IFORT -DUSE_REAL8 -module ../mod -I/usr/local/GEOS-Chem/lib/ -I/usr/local/GEOS-Chem/include/ -c -free ndxx_setup.F90
ifort -cpp -w -auto -noalign -convert big_endian -O2 -vec-report0 -fp-model source -qopenmp -mcmodel=medium -shared-intel -traceback -DMODEL_CLASSIC -DLINUX_IFORT -DUSE_REAL8 -module ../mod -I/usr/local/GEOS-Chem/lib/ -I/usr/local/GEOS-Chem/include/ -c -free oasave.F90
ifort -cpp -w -auto -noalign -convert big_endian -O2 -vec-report0 -fp-model source -qopenmp -mcmodel=medium -shared-intel -traceback -DMODEL_CLASSIC -DLINUX_IFORT -DUSE_REAL8 -module ../mod -I/usr/local/GEOS-Chem/lib/ -I/usr/local/GEOS-Chem/include/ -c -free carbon_mod.F90
ifort -cpp -w -auto -noalign -convert big_endian -O2 -vec-report0 -fp-model source -qopenmp -mcmodel=medium -shared-intel -traceback -DMODEL_CLASSIC -DLINUX_IFORT -DUSE_REAL8 -module ../mod -I/usr/local/GEOS-Chem/lib/ -I/usr/local/GEOS-Chem/include/ -c -free flexchem_mod.F90
ifort -cpp -w -auto -noalign -convert big_endian -O2 -vec-report0 -fp-model source -qopenmp -mcmodel=medium -shared-intel -traceback -DMODEL_CLASSIC -DLINUX_IFORT -DUSE_REAL8 -module ../mod -I/usr/local/GEOS-Chem/lib/ -I/usr/local/GEOS-Chem/include/ -c -free convection_mod.F90
ifort -cpp -w -auto -noalign -convert big_endian -O2 -vec-report0 -fp-model source -qopenmp -mcmodel=medium -shared-intel -traceback -DMODEL_CLASSIC -DLINUX_IFORT -DUSE_REAL8 -module ../mod -I/usr/local/GEOS-Chem/lib/ -I/usr/local/GEOS-Chem/include/ -c -free vdiff_mod.F90
ifort -cpp -w -auto -noalign -convert big_endian -O2 -vec-report0 -fp-model source -qopenmp -mcmodel=medium -shared-intel -traceback -DMODEL_CLASSIC -DLINUX_IFORT -DUSE_REAL8 -module ../mod -I/usr/local/GEOS-Chem/lib/ -I/usr/local/GEOS-Chem/include/ -c -free chemistry_mod.F90
ifort -cpp -w -auto -noalign -convert big_endian -O2 -vec-report0 -fp-model source -qopenmp -mcmodel=medium -shared-intel -traceback -DMODEL_CLASSIC -DLINUX_IFORT -DUSE_REAL8 -module ../mod -I/usr/local/GEOS-Chem/lib/ -I/usr/local/GEOS-Chem/include/ -c -free emissions_mod.F90
ifort -cpp -w -auto -noalign -convert big_endian -O2 -vec-report0 -fp-model source -qopenmp -mcmodel=medium -shared-intel -traceback -DMODEL_CLASSIC -DLINUX_IFORT -DUSE_REAL8 -module ../mod -I/usr/local/GEOS-Chem/lib/ -I/usr/local/GEOS-Chem/include/ -c -free gc_environment_mod.F90
ifort -cpp -w -auto -noalign -convert big_endian -O2 -vec-report0 -fp-model source -qopenmp -mcmodel=medium -shared-intel -traceback -DMODEL_CLASSIC -DLINUX_IFORT -DUSE_REAL8 -module ../mod -I/usr/local/GEOS-Chem/lib/ -I/usr/local/GEOS-Chem/include/ -c -free cleanup.F90
ifort -cpp -w -auto -noalign -convert big_endian -O2 -vec-report0 -fp-model source -qopenmp -mcmodel=medium -shared-intel -traceback -DMODEL_CLASSIC -DLINUX_IFORT -DUSE_REAL8 -module ../mod -I/usr/local/GEOS-Chem/lib/ -I/usr/local/GEOS-Chem/include/ -c -free mixing_mod.F90
ifort -cpp -w -auto -noalign -convert big_endian -O2 -vec-report0 -fp-model source -qopenmp -mcmodel=medium -shared-intel -traceback -DMODEL_CLASSIC -DLINUX_IFORT -DUSE_REAL8 -module ../mod -I/usr/local/GEOS-Chem/lib/ -I/usr/local/GEOS-Chem/include/ -c -free main.F90
make[4]: Leaving directory '/home/disk/cindylou/ujongebl/mod_dms_12.9.3/GeosCore'
make[3]: Leaving directory '/home/disk/cindylou/ujongebl/mod_dms_12.9.3/GeosCore'
make[3]: Entering directory '/home/disk/cindylou/ujongebl/mod_dms_12.9.3/GeosCore'
ifort -cpp -w -auto -noalign -convert big_endian -O2 -vec-report0 -fp-model source -qopenmp -mcmodel=medium -shared-intel -traceback -DMODEL_CLASSIC -DLINUX_IFORT -DUSE_REAL8 aero_drydep.o aerosol_mod.o apm_driv_mod.o calc_met_mod.o carbon_mod.o chemistry_mod.o cldice_HBrHOBr_rxn.o cleanup.o co2_mod.o convection_mod.o depo_mercury_mod.o diag03_mod.o diag1.o diag3.o diag51b_mod.o diag51_mod.o diag53_mod.o diag_mod.o diagnostics_mod.o diag_oh_mod.o drydep_mod.o dust_mod.o emissions_mod.o exchange_mod.o fast_jx_mod.o flexchem_mod.o flexgrid_read_mod.o gamap_mod.o gc_environment_mod.o get_met_mod.o get_ndep_mod.o global_br_mod.o global_ch4_mod.o gosat_ch4_mod.o hcoi_gc_diagn_mod.o hcoi_gc_main_mod.o hco_interface_mod.o initialize.o input_mod.o isorropiaII_mod.o land_mercury_mod.o linoz_mod.o main.o mapping_mod.o mercury_mod.o mixing_mod.o modis_lai_mod.o ndxx_setup.o oasave.o ocean_mercury_mod.o olson_landmap_mod.o pbl_mix_mod.o pjc_pfix_mod.o pjc_pfix_window_mod.o planeflight_mod.o pops_mod.o RnPbBe_mod.o rpmares_mod.o rrtmg_rad_transfer_mod.o seasalt_mod.o set_global_ch4_mod.o set_prof_o3.o sfcvmr_mod.o strat_chem_mod.o sulfate_mod.o tagged_co_mod.o tagged_o3_mod.o tccon_ch4_mod.o tomas_mod.o toms_mod.o tpcore_fvdas_mod.o tpcore_window_mod.o transport_mod.o ucx_mod.o uvalbedo_mod.o vdiff_mod.o vdiff_pre_mod.o wetscav_mod.o YuIMN_Code.o -L../lib -lIsorropia -lObsPack -lHistory -lHCOI -lHCOX -lHCO -lGeosUtil -lKpp -lHeaders -lNcUtils -L/usr/local/GEOS-Chem/lib -lnetcdff -L/usr/local/GEOS-Chem//lib -lnetcdf -lnetcdf -L/usr/local/GEOS-Chem/lib -L/usr/local/GEOS-Chem//lib -lnetcdf -lhdf5_hl -lhdf5 -lm -lz -o geos
cp -f geos ../bin
make[3]: Leaving directory '/home/disk/cindylou/ujongebl/mod_dms_12.9.3/GeosCore'
make[2]: Leaving directory '/home/disk/cindylou/ujongebl/mod_dms_12.9.3/GeosCore'
make[1]: Leaving directory '/home/disk/cindylou/ujongebl/mod_dms_12.9.3'
make[1]: Entering directory '/home/disk/cindylou/ujongebl/mod_dms_12.9.3/rundirs/pd'
LAST BUILD INFORMATION:
  CODE_DIR     : ./CodeDir
  CODE_BRANCH  : main
  LAST_COMMIT  : mod
  COMMIT_DATE  : Tue May 16 15:09:38 2023 -0700
  VERSION      : 12.9.3
  VERSION_TAG  : GC_12.9.3
  TRACEBACK    : y
  BOUNDS       : n
  DEBUG        : n
  FPE          : n
  OMP          : y
  CHEM         : Tropchem
  TOMAS12      : n
  TOMAS15      : n
  TOMAS30      : n
  TOMAS40      : n
  APM          : n
  RRTMG        : n
  TAU_PROF     : n
  BPCH_DIAG    : n
  COMPILER     : ifort 19.0.1.144
  Datetime     : 2023/11/17 09:14
make[1]: Leaving directory '/home/disk/cindylou/ujongebl/mod_dms_12.9.3/rundirs/pd'
